Nodes:  tri[0737-0738]
Tasks:  128
NPN:    64
Config: /scratch/anthonyy/reentry/orion/config/generated/m1.5_coarse.cfg

-------------------------------------------------------------------------
|    ___ _   _ ___                                                      |
|   / __| | | |_  )   Release 7.5.1 "Blackbird"                         |
|   \__ \ |_| |/ /                                                      |
|   |___/\___//___|   Suite (Computational Fluid Dynamics Code)         |
|                                                                       |
-------------------------------------------------------------------------
| SU2 Project Website: https://su2code.github.io                        |
|                                                                       |
| The SU2 Project is maintained by the SU2 Foundation                   |
| (http://su2foundation.org)                                            |
-------------------------------------------------------------------------
| Copyright 2012-2023, SU2 Contributors                                 |
|                                                                       |
| SU2 is free software; you can redistribute it and/or                  |
| modify it under the terms of the GNU Lesser General Public            |
| License as published by the Free Software Foundation; either          |
| version 2.1 of the License, or (at your option) any later version.    |
|                                                                       |
| SU2 is distributed in the hope that it will be useful,                |
| but WITHOUT ANY WARRANTY; without even the implied warranty of        |
| MERCHANTABILITY or FITNESS FOR A PARTICULAR PURPOSE. See the GNU      |
| Lesser General Public License for more details.                       |
|                                                                       |
| You should have received a copy of the GNU Lesser General Public      |
| License along with SU2. If not, see <http://www.gnu.org/licenses/>.   |
-------------------------------------------------------------------------

Parsing config file for zone 0

----------------- Physical Case Definition ( Zone 0 ) -------------------
Compressible RANS equations.
Turbulence model: Spalart-Allmaras-noft2
Hybrid RANS/LES: No Hybrid RANS/LES
Mach number: 1.5.
Angle of attack (AoA): 0 deg, and angle of sideslip (AoS): 0 deg.
Reynolds number: 1.71557e+08. Reference length 5.
No restart solution, use the values at infinity (freestream).
Non-Dimensional simulation (V=1.0, Rho=1.0, T=1.0 at the farfield).
The reference area will be computed using y(2D) or z(3D) projection.
The semi-span will be computed using the max y(3D) value.
The reference length is 0.64607 m.
Reference origin for moment evaluation is (0.25, 0, 0).
Surface(s) where the force coefficients are evaluated: ORION_SURFACE.

Input mesh file name: ../../mesh/course.su2

--------------- Space Numerical Integration ( Zone 0 ) ------------------
Jameson-Schmidt-Turkel scheme (2nd order in space) for the flow inviscid terms.
JST viscous coefficients (2nd & 4th): 0.5, 0.02.
The method includes a grid stretching correction (p = 0.3).
Scalar upwind solver for the turbulence model.
First order integration in space.
Average of gradients with correction (viscous flow terms).
Average of gradients with correction (viscous turbulence terms).
Gradient for upwind reconstruction: Green-Gauss.
Gradient for viscous and source terms: Green-Gauss.

--------------- Time Numerical Integration  ( Zone 0 ) ------------------
Local time stepping (steady state simulation).
Euler implicit method for the flow equations.
FGMRES is used for solving the linear system.
Using a ILU(0) preconditioning.
Convergence criteria of the linear solver: 1e-06.
Max number of linear iterations: 100.
CFL adaptation. Factor down: 0.5, factor up: 1.2,
                lower limit: 0.1, upper limit: 3,
                acceptable linear residual: 0.001.
Courant-Friedrichs-Lewy number:        1
Euler implicit time integration for the turbulence model.

------------------ Convergence Criteria  ( Zone 0 ) ---------------------
Maximum number of solver subiterations: 999999.
Begin convergence monitoring at iteration 5.
Residual minimum value: 1e-8.
Cauchy series min. value: 1e-10.
Number of Cauchy elements: 100.
Begin windowed time average at iteration 0.

-------------------- Output Information ( Zone 0 ) ----------------------
File writing frequency: 
+------------------------------------+
|                     File| Frequency|
+------------------------------------+
|                  RESTART|       150|
|                 PARAVIEW|       150|
|         SURFACE_PARAVIEW|       150|
+------------------------------------+
Writing the convergence history file every 1 inner iterations.
Writing the screen convergence history every 1 inner iterations.
The tabular file format is CSV (.csv).
Convergence history file name: history.
Forces breakdown file name: forces_breakdown.dat.
Surface file name: surface_flow.
Volume file name: flow.
Restart file name: restart_flow.

------------- Config File Boundary Information ( Zone 0 ) ---------------
+-----------------------------------------------------------------------+
|                        Marker Type|                        Marker Name|
+-----------------------------------------------------------------------+
|                          Far-field|                           FARFIELD|
+-----------------------------------------------------------------------+
|                     Heat flux wall|                      ORION_SURFACE|
+-----------------------------------------------------------------------+

-------------------- Output Preprocessing ( Zone 0 ) --------------------

WARNING: SURFACE_PRESSURE_DROP can only be computed for at least 2 surfaces (outlet, inlet, ...)

Screen output fields: INNER_ITER, WALL_TIME, RMS_DENSITY, RMS_MOMENTUM-X, RMS_MOMENTUM-Y, RMS_MOMENTUM-Z, RMS_ENERGY, RMS_NU_TILDE, DRAG
History output group(s): ITER, RMS_RES
Convergence field(s): RMS_DENSITY
Warning: No (valid) fields chosen for time convergence monitoring. Time convergence monitoring inactive.
Volume output fields: MACH, PRESSURE, TEMPERATURE, DENSITY, HEAT_FLUX, Y_PLUS, COORDINATES, SOLUTION

------------------- Geometry Preprocessing ( Zone 0 ) -------------------
Three dimensional problem.
11720736 grid points before partitioning.
30680382 volume elements before partitioning.
2 surface markers.
790 boundary elements in index 0 (Marker = FARFIELD).
360672 boundary elements in index 1 (Marker = ORION_SURFACE).
Executing the partitioning functions.
Building the graph adjacency structure.
Calling ParMETIS... graph partitioning complete (1579501 edge cuts).
Distributing ParMETIS coloring.
Rebalancing vertices.
Rebalancing volume element connectivity.
Rebalancing markers and surface elements.
13574281 vertices including ghost points. 
32958004 interior elements including halo cells. 
11628872 tetrahedra.
21220846 prisms.
108286 pyramids.
Establishing MPI communication patterns.
Setting point connectivity.
Renumbering points (Reverse Cuthill McKee Ordering).
Recomputing point connectivity.
Setting element connectivity.
Checking the numerical grid orientation.
All volume elements are correctly orientend.
All surface elements are correctly orientend.
Identifying edges and vertices.
Setting the control volume structure.
Volume of the computational grid: 591575.
Searching for the closest normal neighbors to the surfaces.
Storing a mapping from global to local point index.
Compute the surface curvature.
Max K: 109.201. Mean K: 3.88946. Standard deviation K: 7.33798.
Checking for periodicity.
Computing mesh quality statistics for the dual control volumes.
+--------------------------------------------------------------+
|           Mesh Quality Metric|        Minimum|        Maximum|
+--------------------------------------------------------------+
|    Orthogonality Angle (deg.)|        52.6472|             90|
|     CV Face Area Aspect Ratio|        1.03802|         193380|
|           CV Sub-Volume Ratio|        1.00749|         34.476|
+--------------------------------------------------------------+
Finding max control volume width.
Communicating number of neighbors.
Reference area = 11.5305 m^2.
Semi-span length = 2.49994 m.
Wetted area = 57.8992 m^2.
Area projection in the x-plane = 19.6317 m^2, y-plane = 11.5307 m^2, z-plane = 11.5305 m^2.
Max. coordinate in the x-direction = 2.575 m, y-direction = 2.49994 m, z-direction = 2.49989 m.
Min. coordinate in the x-direction = -0.71 m, y-direction = -2.49995 m, z-direction = -2.49995 m.
Computing wall distances.

-------------------- Solver Preprocessing ( Zone 0 ) --------------------
Viscous flow: Computing pressure using the ideal gas law
based on the free-stream temperature and a density computed
from the Reynolds number.
Force coefficients computed using free-stream values.

-- Models:
+------------------------------------------------------------------------------+
|          Viscosity Model|        Conductivity Model|              Fluid Model|
+------------------------------------------------------------------------------+
|               SUTHERLAND|          CONSTANT_PRANDTL|             STANDARD_AIR|
+------------------------------------------------------------------------------+
-- Fluid properties:
+------------------------------------------------------------------------------+
|                  Name|    Dim. value|    Ref. value|      Unit|Non-dim. value|
+------------------------------------------------------------------------------+
|        Ref. Viscosity|     1.716e-05|       613.934|   N.s/m^2|   2.79509e-08|
|      Sutherland Temp.|        273.15|        288.15|         K|      0.947944|
|     Sutherland Const.|         110.4|        288.15|         K|      0.383134|
+------------------------------------------------------------------------------+
|        Prandtl (Lam.)|             -|             -|         -|          0.72|
|       Prandtl (Turb.)|             -|             -|         -|           0.9|
+------------------------------------------------------------------------------+
|          Gas Constant|       287.058|       904.233|  N.m/kg.K|       0.31746|
|      Spec. Heat Ratio|             -|             -|         -|           1.4|
+------------------------------------------------------------------------------+
-- Initial and free-stream conditions:
+------------------------------------------------------------------------------+
|                  Name|    Dim. value|    Ref. value|      Unit|Non-dim. value|
+------------------------------------------------------------------------------+
|       Static Pressure|       99485.6|        313380|        Pa|       0.31746|
|               Density|       1.20274|       1.20274|    kg/m^3|             1|
|           Temperature|        288.15|        288.15|         K|             1|
|          Total Energy|        337067|        260555|   m^2/s^2|       1.29365|
|            Velocity-X|       510.446|       510.446|       m/s|             1|
|            Velocity-Y|             0|       510.446|       m/s|             0|
|            Velocity-Z|             0|       510.446|       m/s|             0|
|    Velocity Magnitude|       510.446|       510.446|       m/s|             1|
+------------------------------------------------------------------------------+
|             Viscosity|    1.7893e-05|       613.934|   N.s/m^2|   2.91448e-08|
|          Conductivity|             -|        555139|   W/m^2.K|             -|
|     Turb. Kin. Energy|        977.08|        260555|   m^2/s^2|       0.00375|
|     Spec. Dissipation|   6.56779e+06|       510.446|       1/s|       12866.8|
+------------------------------------------------------------------------------+
|           Mach Number|             -|             -|         -|           1.5|
|       Reynolds Number|             -|             -|         -|   1.71557e+08|
+------------------------------------------------------------------------------+
Initialize Jacobian structure (Navier-Stokes). MG level: 0.
Initialize Jacobian structure (SA model).

------------------- Numerics Preprocessing ( Zone 0 ) -------------------

----------------- Integration Preprocessing ( Zone 0 ) ------------------

------------------- Iteration Preprocessing ( Zone 0 ) ------------------
Euler/Navier-Stokes/RANS fluid iteration.

------------------------------ Begin Solver -----------------------------

Simulation Run using the Single-zone Driver
WARNING: SU2 was not compiled for an AVX-capable architecture. Performance could be better,
         see https://su2code.github.io/docs_v7/Build-SU2-Linux-MacOS/#compiler-optimizations
+--------------------------------------------------------------------------------------------------------------------+
|  Inner_Iter|   Time(sec)|    rms[Rho]|   rms[RhoU]|   rms[RhoV]|   rms[RhoW]|   rms[RhoE]|     rms[nu]|          CD|
+--------------------------------------------------------------------------------------------------------------------+
|           0|  1.2143e+00|   -4.535266|  -15.586110|  -16.180100|  -16.196456|   -4.328141|  -11.580705|    1.193432|
|           1|  1.1548e+00|   -4.686965|   -4.728909|   -5.791780|   -5.791442|   -4.482312|  -11.578607|    1.787892|
|           2|  1.1372e+00|   -4.689135|   -4.777707|   -5.758513|   -5.758276|   -4.475942|  -11.864986|    2.422680|
|           3|  1.1447e+00|   -4.691522|   -4.841360|   -5.666542|   -5.666398|   -4.468698|  -11.988222|    3.112411|
|           4|  1.1709e+00|   -4.697029|   -4.919647|   -5.570483|   -5.570407|   -4.464662|  -12.095929|    3.876881|
|           5|  1.1735e+00|   -4.711270|   -4.998697|   -5.486777|   -5.486741|   -4.471033|  -12.160465|    4.640420|
|           6|  1.1885e+00|   -4.742526|   -5.034879|   -5.418695|   -5.418677|   -4.499747|  -12.185313|    5.401127|
|           7|  1.2031e+00|   -4.795049|   -4.995657|   -5.359715|   -5.359705|   -4.557773|  -12.187817|    6.034825|
|           8|  1.2123e+00|   -4.839887|   -4.923589|   -5.316877|   -5.316855|   -4.614801|  -12.180084|    6.338116|
|           9|  1.2191e+00|   -4.814396|   -4.878746|   -5.286168|   -5.286154|   -4.579176|  -12.150700|    6.100896|
|          10|  1.2324e+00|   -4.739931|   -4.890604|   -5.261809|   -5.261805|   -4.477656|  -12.140359|    5.368876|
|          11|  1.2388e+00|   -4.693603|   -4.955561|   -5.237057|   -5.237056|   -4.417586|  -12.140494|    4.514189|
|          12|  1.2455e+00|   -4.698826|   -5.005410|   -5.223674|   -5.223666|   -4.420786|  -12.092132|    3.949039|
|          13|  1.2531e+00|   -4.736329|   -4.982338|   -5.223435|   -5.223420|   -4.465573|  -12.051047|    3.760408|
|          14|  1.2568e+00|   -4.772403|   -4.934652|   -5.230880|   -5.230868|   -4.515046|  -12.043526|    3.875105|
|          15|  1.2598e+00|   -4.780740|   -4.937590|   -5.246514|   -5.246509|   -4.525868|  -12.040257|    4.150357|
|          16|  1.2608e+00|   -4.773353|   -4.993028|   -5.265826|   -5.265814|   -4.512289|  -12.027234|    4.447397|
|          17|  1.2670e+00|   -4.774311|   -5.038869|   -5.272602|   -5.272574|   -4.512772|  -12.000442|    4.679993|
|          18|  1.2731e+00|   -4.784788|   -5.013537|   -5.267597|   -5.267573|   -4.529449|  -11.980212|    4.820840|
|          19|  1.2742e+00|   -4.790899|   -4.980000|   -5.260732|   -5.260711|   -4.538678|  -11.973713|    4.890997|
|          20|  1.2762e+00|   -4.785775|   -4.990536|   -5.266875|   -5.266848|   -4.530146|  -11.967269|    4.931273|
|          21|  1.2774e+00|   -4.781857|   -5.033626|   -5.274728|   -5.274706|   -4.523452|  -11.958797|    4.971718|
|          22|  1.2774e+00|   -4.783158|   -5.042142|   -5.270890|   -5.270874|   -4.526378|  -11.940030|    5.019768|
|          23|  1.2804e+00|   -4.786710|   -5.004241|   -5.259991|   -5.259956|   -4.533588|  -11.927317|    5.067172|
|          24|  1.2804e+00|   -4.785427|   -4.981814|   -5.255675|   -5.255645|   -4.531615|  -11.921106|    5.102824|
|          25|  1.2802e+00|   -4.777963|   -4.997726|   -5.261517|   -5.261474|   -4.519747|  -11.916510|    5.121948|
|          26|  1.2801e+00|   -4.773640|   -5.028447|   -5.263323|   -5.263277|   -4.513215|  -11.911052|    5.128139|
|          27|  1.2799e+00|   -4.776425|   -5.024565|   -5.258384|   -5.258337|   -4.517924|  -11.898171|    5.129534|
|          28|  1.2797e+00|   -4.777952|   -4.991274|   -5.248680|   -5.248647|   -4.522026|  -11.888126|    5.133284|
|          29|  1.2801e+00|   -4.775703|   -4.977955|   -5.248022|   -5.247953|   -4.518792|  -11.881176|    5.142281|
|          30|  1.2800e+00|   -4.768659|   -4.994151|   -5.252507|   -5.252448|   -4.508022|  -11.880601|    5.155279|
|          31|  1.2820e+00|   -4.766298|   -5.015251|   -5.252567|   -5.252527|   -4.504446|  -11.875248|    5.169073|
|          32|  1.2841e+00|   -4.769138|   -5.006339|   -5.246950|   -5.246899|   -4.508935|  -11.870129|    5.180857|
|          33|  1.2870e+00|   -4.769964|   -4.979899|   -5.240673|   -5.240604|   -4.511799|  -11.860195|    5.189553|
|          34|  1.2886e+00|   -4.767487|   -4.972530|   -5.242654|   -5.242593|   -4.508238|  -11.854092|    5.195840|
|          35|  1.2899e+00|   -4.761216|   -4.985379|   -5.244975|   -5.244895|   -4.499186|  -11.856182|    5.201283|
|          36|  1.2895e+00|   -4.760667|   -4.997924|   -5.244572|   -5.244503|   -4.498212|  -11.850358|    5.207265|
|          37|  1.2892e+00|   -4.762212|   -4.986239|   -5.238474|   -5.238391|   -4.500865|  -11.851288|    5.214327|
|          38|  1.2891e+00|   -4.762712|   -4.965950|   -5.235628|   -5.235534|   -4.502979|  -11.840093|    5.222135|
|          39|  1.2956e+00|   -4.759345|   -4.959306|   -5.237333|   -5.237259|   -4.498314|  -11.836636|    5.229903|
|          40|  1.3014e+00|   -4.754348|   -4.964019|   -5.238505|   -5.238420|   -4.491387|  -11.837309|    5.236939|
|          41|  1.3047e+00|   -4.753616|   -4.964855|   -5.236228|   -5.236147|   -4.490249|  -11.831875|    5.242980|
|          42|  1.3081e+00|   -4.753076|   -4.947731|   -5.230575|   -5.230494|   -4.490054|  -11.833242|    5.248201|
|          43|  1.3104e+00|   -4.751866|   -4.925990|   -5.228609|   -5.228510|   -4.489556|  -11.820953|    5.252998|
|          44|  1.3134e+00|   -4.746190|   -4.909773|   -5.226963|   -5.226860|   -4.482180|  -11.816989|    5.257707|
|          45|  1.3168e+00|   -4.740156|   -4.897160|   -5.224606|   -5.224493|   -4.474445|  -11.813225|    5.262445|
|          46|  1.3188e+00|   -4.735847|   -4.879904|   -5.217313|   -5.217171|   -4.469084|  -11.805605|    5.267124|
|          47|  1.3208e+00|   -4.730774|   -4.852909|   -5.208638|   -5.208488|   -4.463418|  -11.801991|    5.271569|
|          48|  1.3231e+00|   -4.724624|   -4.823872|   -5.201126|   -5.200935|   -4.457007|  -11.788317|    5.275654|
|          49|  1.3248e+00|   -4.714799|   -4.796756|   -5.191503|   -5.191275|   -4.445652|  -11.779219|    5.279362|
|          50|  1.3272e+00|   -4.704448|   -4.771536|   -5.180014|   -5.179738|   -4.434089|  -11.770608|    5.282769|
|          51|  1.3290e+00|   -4.694641|   -4.745929|   -5.164300|   -5.163966|   -4.423607|  -11.758827|    5.285980|
|          52|  1.3308e+00|   -4.684199|   -4.718182|   -5.148569|   -5.148169|   -4.412943|  -11.749843|    5.289067|
|          53|  1.3327e+00|   -4.673096|   -4.691043|   -5.132161|   -5.131713|   -4.402235|  -11.736307|    5.292047|
|          54|  1.3358e+00|   -4.660596|   -4.666142|   -5.115066|   -5.114555|   -4.389835|  -11.723447|    5.294891|
|          55|  1.3381e+00|   -4.647527|   -4.643597|   -5.096452|   -5.095908|   -4.377107|  -11.713827|    5.297563|
|          56|  1.3407e+00|   -4.635777|   -4.623145|   -5.077329|   -5.076738|   -4.366278|  -11.700739|    5.300044|
|          57|  1.3421e+00|   -4.623901|   -4.603277|   -5.058957|   -5.058369|   -4.355495|  -11.691648|    5.302341|
|          58|  1.3431e+00|   -4.612754|   -4.584864|   -5.041248|   -5.040637|   -4.346107|  -11.680426|    5.304479|
|          59|  1.3444e+00|   -4.601633|   -4.568600|   -5.024478|   -5.023904|   -4.336597|  -11.669239|    5.306486|
|          60|  1.3453e+00|   -4.590517|   -4.554532|   -5.007971|   -5.007396|   -4.327107|  -11.662015|    5.308378|
|          61|  1.3478e+00|   -4.581227|   -4.542856|   -4.993023|   -4.992507|   -4.319881|  -11.651756|    5.310159|
|          62|  1.3503e+00|   -4.572294|   -4.532218|   -4.979395|   -4.978897|   -4.312919|  -11.645912|    5.311826|
|          63|  1.3521e+00|   -4.564716|   -4.522895|   -4.967118|   -4.966670|   -4.307962|  -11.638506|    5.313372|
|          64|  1.3545e+00|   -4.557491|   -4.515272|   -4.956122|   -4.955709|   -4.303112|  -11.631105|    5.314794|
|          65|  1.3557e+00|   -4.550466|   -4.509353|   -4.945988|   -4.945618|   -4.298362|  -11.627041|    5.316098|
|          66|  1.3563e+00|   -4.545015|   -4.505406|   -4.937440|   -4.937123|   -4.295469|  -11.620319|    5.317292|
|          67|  1.3576e+00|   -4.539984|   -4.502248|   -4.929965|   -4.929683|   -4.292725|  -11.617679|    5.318385|
|          68|  1.3588e+00|   -4.536350|   -4.499974|   -4.923715|   -4.923484|   -4.291969|  -11.613573|    5.319383|
|          69|  1.3595e+00|   -4.533034|   -4.498866|   -4.918307|   -4.918105|   -4.291066|  -11.609386|    5.320288|
|          70|  1.3602e+00|   -4.529952|   -4.498868|   -4.913589|   -4.913425|   -4.290160|  -11.608228|    5.321101|
|          71|  1.3614e+00|   -4.528310|   -4.500332|   -4.909936|   -4.909802|   -4.290790|  -11.604208|    5.321821|
|          72|  1.3623e+00|   -4.526828|   -4.502059|   -4.906572|   -4.906452|   -4.291071|  -11.604473|    5.322447|
|          73|  1.3630e+00|   -4.526702|   -4.504232|   -4.904048|   -4.903955|   -4.293269|  -11.602797|    5.322983|
|          74|  1.3638e+00|   -4.526482|   -4.507055|   -4.901618|   -4.901539|   -4.294731|  -11.601196|    5.323433|
|          75|  1.3635e+00|   -4.526264|   -4.510451|   -4.899703|   -4.899655|   -4.296044|  -11.602321|    5.323800|
|          76|  1.3644e+00|   -4.527108|   -4.514962|   -4.898303|   -4.898286|   -4.298606|  -11.600243|    5.324090|
|          77|  1.3650e+00|   -4.527567|   -4.519261|   -4.896947|   -4.896932|   -4.300280|  -11.602572|    5.324305|
|          78|  1.3658e+00|   -4.529147|   -4.523797|   -4.896150|   -4.896147|   -4.303817|  -11.602285|    5.324448|
|          79|  1.3663e+00|   -4.530162|   -4.528557|   -4.895173|   -4.895160|   -4.306071|  -11.602368|    5.324520|
|          80|  1.3676e+00|   -4.531008|   -4.533516|   -4.894586|   -4.894594|   -4.308108|  -11.604712|    5.324525|
|          81|  1.3683e+00|   -4.532657|   -4.539429|   -4.894167|   -4.894171|   -4.311153|  -11.603493|    5.324463|
|          82|  1.3687e+00|   -4.533580|   -4.544794|   -4.893779|   -4.893798|   -4.312929|  -11.606605|    5.324336|
|          83|  1.3690e+00|   -4.535537|   -4.550370|   -4.893777|   -4.893789|   -4.316638|  -11.606251|    5.324147|
|          84|  1.3694e+00|   -4.536566|   -4.555772|   -4.893664|   -4.893658|   -4.318644|  -11.606527|    5.323898|
|          85|  1.3699e+00|   -4.537424|   -4.561184|   -4.893899|   -4.893895|   -4.320621|  -11.607952|    5.323589|
|          86|  1.3712e+00|   -4.538678|   -4.567315|   -4.894247|   -4.894215|   -4.323100|  -11.606033|    5.323224|
|          87|  1.3715e+00|   -4.539092|   -4.572643|   -4.894666|   -4.894650|   -4.324257|  -11.607777|    5.322803|
|          88|  1.3719e+00|   -4.540331|   -4.578009|   -4.895415|   -4.895363|   -4.327125|  -11.605795|    5.322328|
|          89|  1.3720e+00|   -4.540388|   -4.582718|   -4.896061|   -4.896023|   -4.328004|  -11.604854|    5.321802|
|          90|  1.3716e+00|   -4.540372|   -4.587270|   -4.897153|   -4.897093|   -4.329122|  -11.604006|    5.321226|
|          91|  1.3715e+00|   -4.540251|   -4.592131|   -4.898267|   -4.898209|   -4.330084|  -11.600914|    5.320601|
|          92|  1.3710e+00|   -4.539456|   -4.596074|   -4.899639|   -4.899580|   -4.330088|  -11.600288|    5.319927|
|          93|  1.3705e+00|   -4.539070|   -4.599716|   -4.901204|   -4.901128|   -4.331204|  -11.597025|    5.319207|
|          94|  1.3704e+00|   -4.537699|   -4.602475|   -4.902781|   -4.902715|   -4.330709|  -11.594353|    5.318438|
|          95|  1.3700e+00|   -4.536135|   -4.604887|   -4.904674|   -4.904589|   -4.330211|  -11.591867|    5.317622|
|          96|  1.3699e+00|   -4.534414|   -4.607430|   -4.906540|   -4.906459|   -4.329484|  -11.587698|    5.316757|
|          97|  1.3696e+00|   -4.532224|   -4.609122|   -4.908682|   -4.908591|   -4.328003|  -11.585189|    5.315841|
|          98|  1.3695e+00|   -4.530299|   -4.610336|   -4.910830|   -4.910730|   -4.327289|  -11.581268|    5.314875|
|          99|  1.3691e+00|   -4.527867|   -4.610792|   -4.913085|   -4.912993|   -4.325629|  -11.577105|    5.313855|
|         100|  1.3687e+00|   -4.525119|   -4.610759|   -4.915351|   -4.915246|   -4.323569|  -11.573814|    5.312780|
|         101|  1.3630e+00|   -4.522501|   -4.610898|   -4.917602|   -4.917508|   -4.321666|  -11.573411|    5.312754|
|         102|  1.3574e+00|   -4.521624|   -4.610743|   -4.917330|   -4.917235|   -4.320577|  -11.572198|    5.312722|
|         103|  1.3520e+00|   -4.520599|   -4.610543|   -4.917005|   -4.916909|   -4.319311|  -11.570759|    5.312684|
|         104|  1.3466e+00|   -4.519410|   -4.610280|   -4.916619|   -4.916520|   -4.317855|  -11.569061|    5.312638|
|         105|  1.3415e+00|   -4.518045|   -4.609928|   -4.916158|   -4.916058|   -4.316202|  -11.567086|    5.312581|
|         106|  1.3364e+00|   -4.516504|   -4.609448|   -4.915612|   -4.915508|   -4.314362|  -11.564836|    5.312512|
|         107|  1.3319e+00|   -4.514799|   -4.608787|   -4.914967|   -4.914859|   -4.312371|  -11.562350|    5.312428|
|         108|  1.3276e+00|   -4.512969|   -4.607871|   -4.914210|   -4.914097|   -4.310304|  -11.559694|    5.312324|
|         109|  1.3233e+00|   -4.511084|   -4.606603|   -4.913331|   -4.913213|   -4.308284|  -11.557022|    5.312196|
|         110|  1.3196e+00|   -4.509253|   -4.604869|   -4.912333|   -4.912209|   -4.306484|  -11.554562|    5.312038|
|         111|  1.3160e+00|   -4.507588|   -4.602560|   -4.911230|   -4.911102|   -4.305055|  -11.552449|    5.311843|
|         112|  1.3125e+00|   -4.506127|   -4.599601|   -4.910052|   -4.909919|   -4.303977|  -11.550509|    5.311599|
|         113|  1.3097e+00|   -4.504696|   -4.596030|   -4.908831|   -4.908696|   -4.302805|  -11.548099|    5.311294|
|         114|  1.3070e+00|   -4.502790|   -4.592128|   -4.907580|   -4.907440|   -4.300504|  -11.544432|    5.310912|
|         115|  1.3050e+00|   -4.499614|   -4.588620|   -4.906253|   -4.906096|   -4.295727|  -11.539704|    5.310429|
|         116|  1.3029e+00|   -4.494362|   -4.586554|   -4.904807|   -4.904642|   -4.287497|  -11.534984|    5.309819|
|         117|  1.3018e+00|   -4.487434|   -4.586037|   -4.903578|   -4.903432|   -4.276748|  -11.531975|    5.309043|
|         118|  1.3010e+00|   -4.481342|   -4.586478|   -4.903610|   -4.903485|   -4.267760|  -11.531771|    5.308056|
|         119|  1.3001e+00|   -4.478829|   -4.587518|   -4.905921|   -4.905778|   -4.264694|  -11.533629|    5.306792|
|         120|  1.2998e+00|   -4.480636|   -4.588969|   -4.910409|   -4.910274|   -4.268473|  -11.535565|    5.305278|
|         121|  1.2995e+00|   -4.484513|   -4.588919|   -4.916024|   -4.915969|   -4.275475|  -11.536488|    5.303684|
|         122|  1.2993e+00|   -4.487924|   -4.585599|   -4.920780|   -4.920731|   -4.281590|  -11.535591|    5.302001|
|         123|  1.2991e+00|   -4.489682|   -4.579479|   -4.922751|   -4.922626|   -4.284954|  -11.532936|    5.300216|
|         124|  1.2991e+00|   -4.488829|   -4.571878|   -4.921823|   -4.921677|   -4.283910|  -11.528471|    5.298321|
|         125|  1.2990e+00|   -4.485763|   -4.563521|   -4.919444|   -4.919284|   -4.278888|  -11.522301|    5.296306|
|         126|  1.2982e+00|   -4.481425|   -4.553571|   -4.914769|   -4.914516|   -4.271839|  -11.516833|    5.294169|
|         127|  1.2974e+00|   -4.477172|   -4.541151|   -4.907758|   -4.907402|   -4.265272|  -11.511433|    5.291913|
|         128|  1.2968e+00|   -4.472559|   -4.525696|   -4.898702|   -4.898245|   -4.258262|  -11.505903|    5.289555|
|         129|  1.2961e+00|   -4.466880|   -4.508222|   -4.887092|   -4.886449|   -4.249594|  -11.500221|    5.287128|
|         130|  1.2953e+00|   -4.459906|   -4.489717|   -4.873139|   -4.872346|   -4.238714|  -11.493683|    5.284684|
|         131|  1.2945e+00|   -4.451815|   -4.469745|   -4.857283|   -4.856318|   -4.226047|  -11.487317|    5.282295|
|         132|  1.2938e+00|   -4.443236|   -4.448032|   -4.839053|   -4.837866|   -4.213016|  -11.480958|    5.280035|
|         133|  1.2930e+00|   -4.434120|   -4.424488|   -4.818701|   -4.817347|   -4.199666|  -11.474052|    5.277974|
|         134|  1.2923e+00|   -4.424009|   -4.399462|   -4.796632|   -4.795107|   -4.185474|  -11.466435|    5.276154|
|         135|  1.2915e+00|   -4.412408|   -4.373891|   -4.772762|   -4.771063|   -4.169939|  -11.457358|    5.274571|
|         136|  1.2908e+00|   -4.399148|   -4.348062|   -4.747758|   -4.745946|   -4.152881|  -11.447429|    5.273156|
|         137|  1.2901e+00|   -4.384787|   -4.321947|   -4.722027|   -4.720117|   -4.135307|  -11.436592|    5.271764|
|         138|  1.2889e+00|   -4.369433|   -4.295674|   -4.695577|   -4.693594|   -4.117600|  -11.424331|    5.270168|
|         139|  1.2877e+00|   -4.352937|   -4.269346|   -4.668890|   -4.666896|   -4.099637|  -11.411295|    5.268092|
|         140|  1.2865e+00|   -4.335547|   -4.243232|   -4.642332|   -4.640357|   -4.081813|  -11.396484|    5.265233|
|         141|  1.2856e+00|   -4.316841|   -4.217717|   -4.615908|   -4.613989|   -4.063566|  -11.379350|    5.261285|
|         142|  1.2844e+00|   -4.296697|   -4.192921|   -4.589986|   -4.588177|   -4.044703|  -11.361398|    5.255993|
|         143|  1.2833e+00|   -4.275904|   -4.168829|   -4.564802|   -4.563142|   -4.026238|  -11.341978|    5.249199|
|         144|  1.2822e+00|   -4.254520|   -4.145455|   -4.540300|   -4.538829|   -4.008136|  -11.320556|    5.240887|
|         145|  1.2785e+00|   -4.232378|   -4.122842|   -4.516648|   -4.515418|   -3.990079|  -11.335216|    5.240618|
|         146|  1.2747e+00|   -4.231422|   -4.122125|   -4.515959|   -4.514743|   -3.989338|  -11.334048|    5.240292|
|         147|  1.2710e+00|   -4.230285|   -4.121272|   -4.515134|   -4.513937|   -3.988466|  -11.332646|    5.239897|
|         148|  1.2675e+00|   -4.228937|   -4.120256|   -4.514147|   -4.512974|   -3.987441|  -11.330965|    5.239417|
|         149|  1.2643e+00|   -4.227341|   -4.119048|   -4.512968|   -4.511824|   -3.986244|  -11.328951|    5.238833|
|         150|  1.2612e+00|   -4.225458|   -4.117615|   -4.511560|   -4.510452|   -3.984853|  -11.326544|    5.238119|
+-----------------------------------------------------------------------+
|        File Writing Summary       |              Filename             |
+-----------------------------------------------------------------------+
|SU2 binary restart                 |restart_flow.dat                   |
|Paraview                           |flow.vtu                           |
|Paraview surface                   |surface_flow.vtu                   |
+-----------------------------------------------------------------------+
+--------------------------------------------------------------------------------------------------------------------+
|  Inner_Iter|   Time(sec)|    rms[Rho]|   rms[RhoU]|   rms[RhoV]|   rms[RhoW]|   rms[RhoE]|     rms[nu]|          CD|
+--------------------------------------------------------------------------------------------------------------------+
|         151|  1.2964e+00|   -4.223243|   -4.115915|   -4.509881|   -4.508816|   -3.983248|  -11.323672|    5.237245|
|         152|  1.2937e+00|   -4.220648|   -4.113903|   -4.507879|   -4.506868|   -3.981409|  -11.320252|    5.236172|
|         153|  1.2911e+00|   -4.217620|   -4.111523|   -4.505494|   -4.504549|   -3.979321|  -11.316184|    5.234848|
|         154|  1.2891e+00|   -4.214099|   -4.108711|   -4.502654|   -4.501791|   -3.976967|  -11.311342|    5.233211|
|         155|  1.2872e+00|   -4.210017|   -4.105386|   -4.499274|   -4.498510|   -3.974322|  -11.305561|    5.231178|
|         156|  1.2851e+00|   -4.205283|   -4.101449|   -4.495246|   -4.494605|   -3.971337|  -11.298594|    5.228645|
|         157|  1.2825e+00|   -4.199770|   -4.096770|   -4.490441|   -4.489949|   -3.967908|  -11.290094|    5.225481|
|         158|  1.2804e+00|   -4.193282|   -4.091180|   -4.484699|   -4.484385|   -3.963826|  -11.279650|    5.221523|
|         159|  1.2785e+00|   -4.185535|   -4.084468|   -4.477830|   -4.477727|   -3.958763|  -11.266859|    5.216573|
|         160|  1.2766e+00|   -4.176153|   -4.076383|   -4.469618|   -4.469758|   -3.952310|  -11.251599|    5.210410|
|         161|  1.2752e+00|   -4.164697|   -4.066640|   -4.459813|   -4.460232|   -3.944065|  -11.233796|    5.202814|
|         162|  1.2740e+00|   -4.150631|   -4.054851|   -4.448083|   -4.448810|   -3.933499|  -11.212747|    5.193634|
|         163|  1.2729e+00|   -4.133335|   -4.040376|   -4.433949|   -4.435003|   -3.919712|  -11.187412|    5.182903|
|         164|  1.2724e+00|   -4.112481|   -4.022516|   -4.416939|   -4.418324|   -3.902223|  -11.161016|    5.171649|
|         165|  1.2719e+00|   -4.089434|   -4.002461|   -4.398216|   -4.399925|   -3.882865|  -11.139392|    5.161589|
|         166|  1.2711e+00|   -4.067071|   -3.983224|   -4.380488|   -4.382522|   -3.864851|  -11.118187|    5.152933|
|         167|  1.2705e+00|   -4.045391|   -3.965142|   -4.363794|   -4.366176|   -3.848090|  -11.096230|    5.145734|
|         168|  1.2698e+00|   -4.023957|   -3.948293|   -4.348026|   -4.350782|   -3.831531|  -11.073650|    5.139884|
|         169|  1.2689e+00|   -4.002823|   -3.932758|   -4.333194|   -4.336354|   -3.815142|  -11.051379|    5.135146|
|         170|  1.2680e+00|   -3.982263|   -3.918538|   -4.319315|   -4.322914|   -3.799413|  -11.029627|    5.131195|
|         171|  1.2670e+00|   -3.962224|   -3.905348|   -4.306259|   -4.310330|   -3.784052|  -11.007996|    5.127688|
|         172|  1.2660e+00|   -3.942521|   -3.892819|   -4.293840|   -4.298401|   -3.768404|  -10.986680|    5.124311|
|         173|  1.2654e+00|   -3.923193|   -3.880721|   -4.281931|   -4.286972|   -3.752430|  -10.966367|    5.120823|
|         174|  1.2643e+00|   -3.904414|   -3.868949|   -4.270442|   -4.275929|   -3.736508|  -10.947174|    5.117067|
|         175|  1.2632e+00|   -3.886188|   -3.857334|   -4.259237|   -4.265114|   -3.720564|  -10.928843|    5.112971|
|         176|  1.2622e+00|   -3.868408|   -3.845730|   -4.248171|   -4.254360|   -3.704251|  -10.911391|    5.108524|
|         177|  1.2612e+00|   -3.851056|   -3.834130|   -4.237138|   -4.243544|   -3.687529|  -10.895076|    5.103757|
|         178|  1.2584e+00|   -3.834204|   -3.822586|   -4.226073|   -4.232585|   -3.670624|  -10.930539|    5.103602|
|         179|  1.2554e+00|   -3.833593|   -3.822173|   -4.225755|   -4.232271|   -3.670064|  -10.929716|    5.103417|
|         180|  1.2525e+00|   -3.832869|   -3.821691|   -4.225371|   -4.231890|   -3.669409|  -10.928710|    5.103193|
|         181|  1.2496e+00|   -3.832011|   -3.821131|   -4.224905|   -4.231429|   -3.668644|  -10.927478|    5.102924|
|         182|  1.2475e+00|   -3.830997|   -3.820487|   -4.224339|   -4.230867|   -3.667758|  -10.925968|    5.102598|
|         183|  1.2456e+00|   -3.829803|   -3.819749|   -4.223651|   -4.230183|   -3.666737|  -10.924116|    5.102205|
|         184|  1.2437e+00|   -3.828402|   -3.818912|   -4.222812|   -4.229347|   -3.665570|  -10.921844|    5.101730|
|         185|  1.2418e+00|   -3.826764|   -3.817972|   -4.221787|   -4.228322|   -3.664245|  -10.919061|    5.101154|
|         186|  1.2400e+00|   -3.824858|   -3.816926|   -4.220530|   -4.227062|   -3.662754|  -10.915660|    5.100454|
|         187|  1.2377e+00|   -3.822648|   -3.815773|   -4.218986|   -4.225509|   -3.661088|  -10.911517|    5.099604|
|         188|  1.2357e+00|   -3.820097|   -3.814507|   -4.217085|   -4.223588|   -3.659235|  -10.906497|    5.098568|
|         189|  1.2338e+00|   -3.817157|   -3.813114|   -4.214740|   -4.221209|   -3.657168|  -10.900453|    5.097302|
|         190|  1.2320e+00|   -3.813768|   -3.811554|   -4.211848|   -4.218261|   -3.654827|  -10.893235|    5.095752|
|         191|  1.2302e+00|   -3.809836|   -3.809737|   -4.208288|   -4.214615|   -3.652085|  -10.884700|    5.093852|
|         192|  1.2288e+00|   -3.805211|   -3.807499|   -4.203931|   -4.210130|   -3.648698|  -10.874725|    5.091521|
|         193|  1.2274e+00|   -3.799656|   -3.804540|   -4.198652|   -4.204668|   -3.644234|  -10.863224|    5.088664|
|         194|  1.2263e+00|   -3.792812|   -3.800400|   -4.192352|   -4.198111|   -3.638018|  -10.850172|    5.085178|
|         195|  1.2252e+00|   -3.784187|   -3.794469|   -4.184970|   -4.190383|   -3.629127|  -10.835654|    5.080951|
|         196|  1.2244e+00|   -3.773232|   -3.786075|   -4.176479|   -4.181444|   -3.616538|  -10.819947|    5.075885|
|         197|  1.2236e+00|   -3.759514|   -3.774707|   -4.166826|   -4.171234|   -3.599477|  -10.806824|    5.070269|
|         198|  1.2228e+00|   -3.743993|   -3.761330|   -4.156502|   -4.160302|   -3.579364|  -10.800554|    5.064826|
|         199|  1.2223e+00|   -3.729185|   -3.748609|   -4.146584|   -4.149816|   -3.560056|  -10.795518|    5.059622|
|         200|  1.2215e+00|   -3.715721|   -3.737386|   -4.136703|   -4.139415|   -3.542611|  -10.791350|    5.054714|
|         201|  1.2208e+00|   -3.703855|   -3.728097|   -4.126566|   -4.128801|   -3.527397|  -10.787720|    5.050145|
|         202|  1.2200e+00|   -3.693539|   -3.720905|   -4.116017|   -4.117828|   -3.514336|  -10.784326|    5.045934|
|         203|  1.2193e+00|   -3.684527|   -3.715711|   -4.105052|   -4.106507|   -3.503082|  -10.780935|    5.042072|
|         204|  1.2186e+00|   -3.676493|   -3.712275|   -4.093796|   -4.094965|   -3.493241|  -10.777486|    5.038511|
|         205|  1.2180e+00|   -3.669115|   -3.710274|   -4.082454|   -4.083379|   -3.484475|  -10.773996|    5.035165|
|         206|  1.2173e+00|   -3.662118|   -3.709361|   -4.071252|   -4.071942|   -3.476509|  -10.770478|    5.031906|
|         207|  1.2166e+00|   -3.655278|   -3.709221|   -4.060389|   -4.060823|   -3.469109|  -10.766941|    5.028575|
|         208|  1.2160e+00|   -3.648442|   -3.709625|   -4.050002|   -4.050152|   -3.462082|  -10.763377|    5.024992|
|         209|  1.2154e+00|   -3.641533|   -3.710467|   -4.040178|   -4.040014|   -3.455296|  -10.759752|    5.020968|
|         210|  1.2147e+00|   -3.634544|   -3.711757|   -4.030924|   -4.030440|   -3.448701|  -10.756050|    5.016318|
|         211|  1.2139e+00|   -3.627519|   -3.713501|   -4.022210|   -4.021427|   -3.442268|  -10.752202|    5.010884|
|         212|  1.2135e+00|   -3.620523|   -3.715718|   -4.013978|   -4.012933|   -3.435971|  -10.748224|    5.004541|
|         213|  1.2132e+00|   -3.613635|   -3.718387|   -4.006157|   -4.004931|   -3.429797|  -10.744139|    4.997210|
|         214|  1.2128e+00|   -3.606971|   -3.721475|   -3.998752|   -3.997439|   -3.423808|  -10.740032|    4.988866|
|         215|  1.2124e+00|   -3.600679|   -3.724993|   -3.991806|   -3.990541|   -3.418156|  -10.735957|    4.979537|
|         216|  1.2120e+00|   -3.594876|   -3.728983|   -3.985408|   -3.984275|   -3.412976|  -10.732005|    4.969306|
|         217|  1.2117e+00|   -3.589597|   -3.733421|   -3.979607|   -3.978641|   -3.408279|  -10.728156|    4.958299|
|         218|  1.2113e+00|   -3.584823|   -3.738237|   -3.974342|   -3.973640|   -3.403985|  -10.724367|    4.946677|
|         219|  1.2110e+00|   -3.580600|   -3.743276|   -3.969603|   -3.969305|   -3.400118|  -10.720816|    4.934623|
|         220|  1.2106e+00|   -3.576974|   -3.748380|   -3.965421|   -3.965639|   -3.396782|  -10.717660|    4.922327|
|         221|  1.2105e+00|   -3.573898|   -3.753392|   -3.961899|   -3.962623|   -3.393901|  -10.714848|    4.909970|
|         222|  1.2101e+00|   -3.571343|   -3.758150|   -3.959076|   -3.960174|   -3.391369|  -10.712273|    4.897709|
|         223|  1.2098e+00|   -3.569345|   -3.762495|   -3.956892|   -3.958203|   -3.389241|  -10.710149|    4.885670|
|         224|  1.2095e+00|   -3.568034|   -3.766394|   -3.955255|   -3.956660|   -3.387766|  -10.708746|    4.873942|
|         225|  1.2091e+00|   -3.567441|   -3.769960|   -3.954041|   -3.955530|   -3.387088|  -10.707909|    4.862572|
|         226|  1.2087e+00|   -3.567383|   -3.773161|   -3.953146|   -3.954807|   -3.386971|  -10.707323|    4.851571|
|         227|  1.2084e+00|   -3.567642|   -3.775695|   -3.952486|   -3.954413|   -3.387004|  -10.706885|    4.840922|
|         228|  1.2080e+00|   -3.568109|   -3.777383|   -3.952040|   -3.954268|   -3.386982|  -10.706613|    4.830587|
|         229|  1.2077e+00|   -3.568842|   -3.778322|   -3.951824|   -3.954368|   -3.387057|  -10.706787|    4.820515|
|         230|  1.2073e+00|   -3.569913|   -3.778642|   -3.951858|   -3.954668|   -3.387395|  -10.707392|    4.810652|
|         231|  1.2070e+00|   -3.571337|   -3.778526|   -3.952117|   -3.955148|   -3.388069|  -10.708321|    4.800941|
|         232|  1.2066e+00|   -3.573076|   -3.778169|   -3.952565|   -3.955791|   -3.389043|  -10.709576|    4.791333|
|         233|  1.2063e+00|   -3.575043|   -3.777735|   -3.953181|   -3.956559|   -3.390229|  -10.711077|    4.781776|
|         234|  1.2059e+00|   -3.577138|   -3.777262|   -3.953950|   -3.957429|   -3.391500|  -10.712700|    4.772223|
|         235|  1.2056e+00|   -3.579302|   -3.776806|   -3.954863|   -3.958393|   -3.392798|  -10.714375|    4.762622|
|         236|  1.2053e+00|   -3.581490|   -3.776396|   -3.955878|   -3.959462|   -3.394045|  -10.716061|    4.752917|
|         237|  1.2049e+00|   -3.583749|   -3.776119|   -3.957048|   -3.960639|   -3.395315|  -10.717836|    4.743043|
|         238|  1.2043e+00|   -3.586169|   -3.776091|   -3.958333|   -3.961908|   -3.396764|  -10.719889|    4.732926|
|         239|  1.2039e+00|   -3.588838|   -3.776557|   -3.959723|   -3.963291|   -3.398582|  -10.722239|    4.722484|
|         240|  1.2036e+00|   -3.591731|   -3.777704|   -3.961152|   -3.964787|   -3.400760|  -10.724763|    4.711627|
|         241|  1.2033e+00|   -3.594787|   -3.779619|   -3.962620|   -3.966364|   -3.403207|  -10.727341|    4.700266|
|         242|  1.2029e+00|   -3.597942|   -3.782199|   -3.964114|   -3.967968|   -3.405785|  -10.729901|    4.688314|
|         243|  1.2026e+00|   -3.601247|   -3.785349|   -3.965641|   -3.969594|   -3.408588|  -10.732485|    4.675693|
|         244|  1.2020e+00|   -3.604712|   -3.789052|   -3.967259|   -3.971210|   -3.411707|  -10.735188|    4.662339|
|         245|  1.2014e+00|   -3.608286|   -3.793430|   -3.969004|   -3.972847|   -3.415135|  -10.738007|    4.648206|
|         246|  1.2009e+00|   -3.611814|   -3.798524|   -3.970819|   -3.974545|   -3.418634|  -10.740821|    4.633268|
|         247|  1.2003e+00|   -3.615207|   -3.804217|   -3.972658|   -3.976303|   -3.421997|  -10.743477|    4.617520|
|         248|  1.1998e+00|   -3.618546|   -3.810354|   -3.974487|   -3.978115|   -3.425278|  -10.746067|    4.600975|
|         249|  1.1993e+00|   -3.622055|   -3.816926|   -3.976292|   -3.980006|   -3.428793|  -10.748810|    4.583665|
|         250|  1.1988e+00|   -3.625881|   -3.824019|   -3.978152|   -3.981975|   -3.432807|  -10.751900|    4.565630|
|         251|  1.1983e+00|   -3.629968|   -3.831660|   -3.980110|   -3.984011|   -3.437245|  -10.755159|    4.546918|
|         252|  1.1978e+00|   -3.634122|   -3.839785|   -3.982152|   -3.986087|   -3.441824|  -10.758270|    4.527579|
|         253|  1.1973e+00|   -3.638198|   -3.848316|   -3.984282|   -3.988172|   -3.446332|  -10.761082|    4.507659|
|         254|  1.1968e+00|   -3.642162|   -3.857165|   -3.986448|   -3.990240|   -3.450714|  -10.763683|    4.487199|
|         255|  1.1966e+00|   -3.646091|   -3.866307|   -3.988639|   -3.992272|   -3.455115|  -10.766251|    4.466228|
|         256|  1.1963e+00|   -3.650044|   -3.875675|   -3.990853|   -3.994316|   -3.459629|  -10.768956|    4.444769|
|         257|  1.1960e+00|   -3.654028|   -3.885136|   -3.993104|   -3.996415|   -3.464246|  -10.771729|    4.422831|
|         258|  1.1956e+00|   -3.657982|   -3.894586|   -3.995386|   -3.998589|   -3.468872|  -10.774390|    4.400414|
|         259|  1.1951e+00|   -3.661860|   -3.903991|   -3.997682|   -4.000801|   -3.473426|  -10.776873|    4.377509|
|         260|  1.1945e+00|   -3.665636|   -3.913407|   -3.999985|   -4.002979|   -3.477885|  -10.779226|    4.354103|
|         261|  1.1940e+00|   -3.669296|   -3.922848|   -4.002255|   -4.005044|   -3.482218|  -10.781557|    4.330180|
|         262|  1.1935e+00|   -3.672837|   -3.932239|   -4.004466|   -4.007006|   -3.486405|  -10.783912|    4.305721|
|         263|  1.1931e+00|   -3.676289|   -3.941463|   -4.006640|   -4.008938|   -3.490476|  -10.786256|    4.280710|
|         264|  1.1927e+00|   -3.679687|   -3.950392|   -4.008789|   -4.010940|   -3.494474|  -10.788536|    4.255135|
|         265|  1.1923e+00|   -3.683074|   -3.958935|   -4.010961|   -4.013037|   -3.498446|  -10.790739|    4.228987|
|         266|  1.1918e+00|   -3.686447|   -3.967092|   -4.013170|   -4.015211|   -3.502400|  -10.792851|    4.202263|
|         267|  1.1913e+00|   -3.689775|   -3.974919|   -4.015395|   -4.017382|   -3.506301|  -10.794854|    4.174964|
|         268|  1.1909e+00|   -3.693012|   -3.982462|   -4.017620|   -4.019494|   -3.510098|  -10.796763|    4.147097|
|         269|  1.1904e+00|   -3.696097|   -3.989706|   -4.019785|   -4.021501|   -3.513705|  -10.798584|    4.118671|
|         270|  1.1900e+00|   -3.699010|   -3.996611|   -4.021868|   -4.023412|   -3.517088|  -10.800312|    4.089700|
|         271|  1.1895e+00|   -3.701802|   -4.003119|   -4.023883|   -4.025267|   -3.520317|  -10.801951|    4.060200|
|         272|  1.1893e+00|   -3.704534|   -4.009191|   -4.025863|   -4.027090|   -3.523474|  -10.803542|    4.030189|
|         273|  1.1891e+00|   -3.707251|   -4.014792|   -4.027831|   -4.028887|   -3.526614|  -10.805116|    3.999684|
|         274|  1.1889e+00|   -3.709945|   -4.019932|   -4.029794|   -4.030627|   -3.529719|  -10.806625|    3.968705|
|         275|  1.1887e+00|   -3.712592|   -4.024680|   -4.031754|   -4.032336|   -3.532773|  -10.808091|    3.937271|
|         276|  1.1885e+00|   -3.715153|   -4.029098|   -4.033722|   -4.034045|   -3.535720|  -10.809502|    3.905402|
|         277|  1.1883e+00|   -3.717579|   -4.033206|   -4.035680|   -4.035762|   -3.538498|  -10.810850|    3.873118|
|         278|  1.1881e+00|   -3.719871|   -4.036964|   -4.037610|   -4.037506|   -3.541098|  -10.812160|    3.840440|
|         279|  1.1879e+00|   -3.722072|   -4.040313|   -4.039486|   -4.039282|   -3.543578|  -10.813403|    3.807392|
|         280|  1.1877e+00|   -3.724233|   -4.043200|   -4.041307|   -4.041071|   -3.546004|  -10.814557|    3.773997|
|         281|  1.1874e+00|   -3.726384|   -4.045614|   -4.043053|   -4.042836|   -3.548410|  -10.815635|    3.740281|
|         282|  1.1872e+00|   -3.728530|   -4.047594|   -4.044705|   -4.044569|   -3.550802|  -10.816650|    3.706274|
|         283|  1.1871e+00|   -3.730642|   -4.049187|   -4.046250|   -4.046255|   -3.553146|  -10.817607|    3.672005|
|         284|  1.1869e+00|   -3.732697|   -4.050422|   -4.047691|   -4.047901|   -3.555407|  -10.818491|    3.637508|
|         285|  1.1867e+00|   -3.734682|   -4.051304|   -4.049072|   -4.049516|   -3.557570|  -10.819315|    3.602816|
|         286|  1.1866e+00|   -3.736565|   -4.051780|   -4.050422|   -4.051070|   -3.559609|  -10.820064|    3.567966|
|         287|  1.1865e+00|   -3.738353|   -4.051797|   -4.051762|   -4.052545|   -3.561549|  -10.820737|    3.532994|
|         288|  1.1864e+00|   -3.740047|   -4.051301|   -4.053075|   -4.053909|   -3.563394|  -10.821366|    3.497938|
|         289|  1.1863e+00|   -3.741628|   -4.050230|   -4.054326|   -4.055111|   -3.565116|  -10.821956|    3.462836|
|         290|  1.1862e+00|   -3.743100|   -4.048570|   -4.055483|   -4.056124|   -3.566720|  -10.822484|    3.427727|
|         291|  1.1860e+00|   -3.744472|   -4.046321|   -4.056531|   -4.056959|   -3.568220|  -10.822905|    3.392646|
|         292|  1.1858e+00|   -3.745733|   -4.043514|   -4.057444|   -4.057627|   -3.569606|  -10.823138|    3.357631|
|         293|  1.1856e+00|   -3.746856|   -4.040174|   -4.058191|   -4.058142|   -3.570859|  -10.823106|    3.322715|
|         294|  1.1854e+00|   -3.747814|   -4.036317|   -4.058761|   -4.058528|   -3.571954|  -10.822767|    3.287931|
|         295|  1.1859e+00|   -3.748553|   -4.031934|   -4.059139|   -4.058769|   -3.572840|  -10.822128|    3.253309|
|         296|  1.1857e+00|   -3.749020|   -4.027018|   -4.059302|   -4.058846|   -3.573477|  -10.821203|    3.218877|
|         297|  1.1856e+00|   -3.749192|   -4.021552|   -4.059227|   -4.058721|   -3.573856|  -10.820017|    3.184663|
|         298|  1.1854e+00|   -3.749048|   -4.015531|   -4.058889|   -4.058373|   -3.573974|  -10.818628|    3.150690|
|         299|  1.1852e+00|   -3.748569|   -4.008968|   -4.058242|   -4.057755|   -3.573818|  -10.817051|    3.116981|
|         300|  1.1850e+00|   -3.747744|   -4.001901|   -4.057265|   -4.056834|   -3.573403|  -10.815311|    3.083557|
+-----------------------------------------------------------------------+
|        File Writing Summary       |              Filename             |
+-----------------------------------------------------------------------+
|SU2 binary restart                 |restart_flow.dat                   |
|Paraview                           |flow.vtu                           |
|Paraview surface                   |surface_flow.vtu                   |
+-----------------------------------------------------------------------+
+--------------------------------------------------------------------------------------------------------------------+
|  Inner_Iter|   Time(sec)|    rms[Rho]|   rms[RhoU]|   rms[RhoV]|   rms[RhoW]|   rms[RhoE]|     rms[nu]|          CD|
+--------------------------------------------------------------------------------------------------------------------+
|         301|  1.2081e+00|   -3.746568|   -3.994382|   -4.055968|   -4.055599|   -3.572755|  -10.813415|    3.050434|
|         302|  1.2081e+00|   -3.745030|   -3.986489|   -4.054360|   -4.054045|   -3.571889|  -10.811385|    3.017629|
|         303|  1.2079e+00|   -3.743082|   -3.978298|   -4.052439|   -4.052158|   -3.570782|  -10.809245|    2.985158|
|         304|  1.2078e+00|   -3.740694|   -3.969884|   -4.050207|   -4.049948|   -3.569428|  -10.807002|    2.953033|
|         305|  1.2077e+00|   -3.737825|   -3.961307|   -4.047678|   -4.047440|   -3.567806|  -10.804634|    2.921266|
|         306|  1.2075e+00|   -3.734447|   -3.952623|   -4.044858|   -4.044651|   -3.565907|  -10.802140|    2.889868|
|         307|  1.2072e+00|   -3.730531|   -3.943872|   -4.041756|   -4.041578|   -3.563705|  -10.799502|    2.858848|
|         308|  1.2070e+00|   -3.726045|   -3.935084|   -4.038367|   -4.038201|   -3.561167|  -10.796716|    2.828213|
|         309|  1.2067e+00|   -3.720983|   -3.926284|   -4.034686|   -4.034497|   -3.558283|  -10.793762|    2.797969|
|         310|  1.2065e+00|   -3.715342|   -3.917485|   -4.030694|   -4.030438|   -3.555026|  -10.790600|    2.768122|
|         311|  1.2065e+00|   -3.709126|   -3.908694|   -4.026379|   -4.026012|   -3.551384|  -10.787200|    2.738672|
|         312|  1.2065e+00|   -3.702362|   -3.899910|   -4.021731|   -4.021224|   -3.547357|  -10.783523|    2.709622|
|         313|  1.2062e+00|   -3.695064|   -3.891122|   -4.016738|   -4.016076|   -3.542912|  -10.779520|    2.680970|
|         314|  1.2060e+00|   -3.687253|   -3.882309|   -4.011416|   -4.010578|   -3.538030|  -10.775147|    2.652716|
|         315|  1.2059e+00|   -3.678954|   -3.873449|   -4.005765|   -4.004738|   -3.532688|  -10.770375|    2.624857|
|         316|  1.2056e+00|   -3.670183|   -3.864506|   -3.999780|   -3.998560|   -3.526856|  -10.765178|    2.597389|
|         317|  1.2055e+00|   -3.660972|   -3.855439|   -3.993461|   -3.992053|   -3.520516|  -10.759554|    2.570307|
|         318|  1.2053e+00|   -3.651371|   -3.846201|   -3.986813|   -3.985228|   -3.513670|  -10.753512|    2.543605|
|         319|  1.2050e+00|   -3.641427|   -3.836746|   -3.979840|   -3.978092|   -3.506321|  -10.747075|    2.517276|
|         320|  1.2049e+00|   -3.631184|   -3.827026|   -3.972540|   -3.970638|   -3.498472|  -10.740272|    2.491312|
|         321|  1.2047e+00|   -3.620697|   -3.816998|   -3.964927|   -3.962878|   -3.490145|  -10.733134|    2.465705|
|         322|  1.2044e+00|   -3.610016|   -3.806627|   -3.957011|   -3.954821|   -3.481368|  -10.725661|    2.440444|
|         323|  1.2039e+00|   -3.599185|   -3.795889|   -3.948813|   -3.946483|   -3.472170|  -10.717872|    2.415520|
|         324|  1.2035e+00|   -3.588246|   -3.784774|   -3.940352|   -3.937890|   -3.462585|  -10.709806|    2.390923|
|         325|  1.2031e+00|   -3.577237|   -3.773285|   -3.931659|   -3.929078|   -3.452650|  -10.701451|    2.366645|
|         326|  1.2027e+00|   -3.566191|   -3.761438|   -3.922767|   -3.920076|   -3.442405|  -10.692813|    2.342678|
|         327|  1.2023e+00|   -3.555142|   -3.749259|   -3.913710|   -3.910923|   -3.431894|  -10.683935|    2.319015|
|         328|  1.2018e+00|   -3.544122|   -3.736786|   -3.904525|   -3.901661|   -3.421165|  -10.674861|    2.295650|
|         329|  1.2015e+00|   -3.533163|   -3.724068|   -3.895244|   -3.892339|   -3.410269|  -10.665642|    2.272580|
|         330|  1.2011e+00|   -3.522295|   -3.711158|   -3.885901|   -3.882999|   -3.399260|  -10.656325|    2.249802|
|         331|  1.2007e+00|   -3.511546|   -3.698115|   -3.876526|   -3.873685|   -3.388194|  -10.646952|    2.227318|
|         332|  1.2002e+00|   -3.500948|   -3.685009|   -3.867160|   -3.864441|   -3.377131|  -10.637578|    2.205129|
|         333|  1.1998e+00|   -3.490525|   -3.671902|   -3.857832|   -3.855299|   -3.366119|  -10.628254|    2.183241|
|         334|  1.1994e+00|   -3.480302|   -3.658866|   -3.848578|   -3.846300|   -3.355211|  -10.619023|    2.161663|
|         335|  1.1991e+00|   -3.470303|   -3.645965|   -3.839441|   -3.837470|   -3.344451|  -10.609934|    2.140404|
|         336|  1.1987e+00|   -3.460549|   -3.633264|   -3.830458|   -3.828834|   -3.333883|  -10.601028|    2.119476|
|         337|  1.1982e+00|   -3.451058|   -3.620819|   -3.821659|   -3.820418|   -3.323541|  -10.592335|    2.098896|
|         338|  1.1979e+00|   -3.441846|   -3.608685|   -3.813075|   -3.812241|   -3.313459|  -10.583881|    2.078681|
|         339|  1.1974e+00|   -3.432932|   -3.596914|   -3.804735|   -3.804326|   -3.303670|  -10.575694|    2.058848|
|         340|  1.1970e+00|   -3.424329|   -3.585544|   -3.796665|   -3.796686|   -3.294197|  -10.567793|    2.039419|
|         341|  1.1966e+00|   -3.416046|   -3.574608|   -3.788887|   -3.789331|   -3.285059|  -10.560194|    2.020413|
|         342|  1.1962e+00|   -3.408094|   -3.564138|   -3.781427|   -3.782274|   -3.276276|  -10.552915|    2.001850|
|         343|  1.1958e+00|   -3.400481|   -3.554158|   -3.774299|   -3.775525|   -3.267862|  -10.545970|    1.983747|
|         344|  1.1956e+00|   -3.393217|   -3.544689|   -3.767523|   -3.769091|   -3.259832|  -10.539378|    1.966119|
|         345|  1.1952e+00|   -3.386310|   -3.535740|   -3.761117|   -3.762978|   -3.252200|  -10.533143|    1.948979|
|         346|  1.1949e+00|   -3.379769|   -3.527332|   -3.755097|   -3.757198|   -3.244979|  -10.527265|    1.932335|
|         347|  1.1945e+00|   -3.373598|   -3.519461|   -3.749467|   -3.751760|   -3.238173|  -10.521743|    1.916194|
|         348|  1.1941e+00|   -3.367800|   -3.512120|   -3.744226|   -3.746665|   -3.231784|  -10.516572|    1.900557|
|         349|  1.1938e+00|   -3.362379|   -3.505316|   -3.739374|   -3.741928|   -3.225819|  -10.511747|    1.885424|
|         350|  1.1934e+00|   -3.357334|   -3.499040|   -3.734904|   -3.737551|   -3.220272|  -10.507262|    1.870790|
|         351|  1.1930e+00|   -3.352665|   -3.493297|   -3.730806|   -3.733539|   -3.215147|  -10.503105|    1.856646|
|         352|  1.1926e+00|   -3.348355|   -3.488041|   -3.727060|   -3.729875|   -3.210415|  -10.499262|    1.842983|
|         353|  1.1922e+00|   -3.344399|   -3.483262|   -3.723658|   -3.726542|   -3.206070|  -10.495721|    1.829785|
|         354|  1.1919e+00|   -3.340790|   -3.478956|   -3.720592|   -3.723528|   -3.202110|  -10.492474|    1.817037|
|         355|  1.1916e+00|   -3.337524|   -3.475095|   -3.717845|   -3.720824|   -3.198520|  -10.489515|    1.804719|
|         356|  1.1912e+00|   -3.334591|   -3.471685|   -3.715398|   -3.718415|   -3.195294|  -10.486829|    1.792812|
|         357|  1.1908e+00|   -3.331972|   -3.468685|   -3.713236|   -3.716275|   -3.192406|  -10.484398|    1.781299|
|         358|  1.1905e+00|   -3.329660|   -3.466069|   -3.711347|   -3.714393|   -3.189846|  -10.482209|    1.770163|
|         359|  1.1901e+00|   -3.327640|   -3.463808|   -3.709717|   -3.712752|   -3.187597|  -10.480243|    1.759392|
|         360|  1.1897e+00|   -3.325899|   -3.461903|   -3.708329|   -3.711338|   -3.185650|  -10.478488|    1.748975|
|         361|  1.1894e+00|   -3.324425|   -3.460314|   -3.707180|   -3.710140|   -3.183989|  -10.476928|    1.738902|
|         362|  1.1882e+00|   -3.323200|   -3.459019|   -3.706253|   -3.709149|   -3.182595|  -10.551767|    1.738575|
|         363|  1.1869e+00|   -3.323284|   -3.459124|   -3.706433|   -3.709318|   -3.182785|  -10.550656|    1.738183|
|         364|  1.1857e+00|   -3.323393|   -3.459265|   -3.706642|   -3.709515|   -3.183027|  -10.549333|    1.737713|
|         365|  1.1845e+00|   -3.323534|   -3.459457|   -3.706882|   -3.709740|   -3.183336|  -10.547763|    1.737150|
|         366|  1.1835e+00|   -3.323717|   -3.459718|   -3.707154|   -3.709996|   -3.183734|  -10.545902|    1.736475|
|         367|  1.1824e+00|   -3.323957|   -3.460074|   -3.707461|   -3.710282|   -3.184248|  -10.543704|    1.735666|
|         368|  1.1814e+00|   -3.324271|   -3.460559|   -3.707799|   -3.710598|   -3.184915|  -10.541115|    1.734698|
|         369|  1.1804e+00|   -3.324682|   -3.461219|   -3.708165|   -3.710937|   -3.185780|  -10.538077|    1.733538|
|         370|  1.1794e+00|   -3.325220|   -3.462112|   -3.708550|   -3.711293|   -3.186904|  -10.534526|    1.732149|
|         371|  1.1785e+00|   -3.325918|   -3.463310|   -3.708941|   -3.711649|   -3.188358|  -10.530395|    1.730487|
|         372|  1.1776e+00|   -3.326813|   -3.464897|   -3.709317|   -3.711988|   -3.190223|  -10.525612|    1.728500|
|         373|  1.1767e+00|   -3.327939|   -3.466964|   -3.709653|   -3.712282|   -3.192583|  -10.520102|    1.726126|
|         374|  1.1759e+00|   -3.329316|   -3.469587|   -3.709922|   -3.712509|   -3.195509|  -10.513791|    1.723295|
|         375|  1.1751e+00|   -3.330922|   -3.472783|   -3.710102|   -3.712645|   -3.199012|  -10.506611|    1.719925|
|         376|  1.1744e+00|   -3.332667|   -3.476448|   -3.710190|   -3.712687|   -3.202987|  -10.498525|    1.715930|
|         377|  1.1738e+00|   -3.334339|   -3.480262|   -3.710221|   -3.712668|   -3.207125|  -10.489569|    1.711215|
|         378|  1.1732e+00|   -3.335578|   -3.483586|   -3.710282|   -3.712675|   -3.210811|  -10.479922|    1.705683|
|         379|  1.1728e+00|   -3.335871|   -3.485408|   -3.710512|   -3.712841|   -3.213077|  -10.469978|    1.699240|
|         380|  1.1723e+00|   -3.334685|   -3.484517|   -3.711077|   -3.713329|   -3.212749|  -10.460358|    1.691799|
|         381|  1.1721e+00|   -3.331682|   -3.479914|   -3.712056|   -3.714202|   -3.208793|  -10.456066|    1.683786|
|         382|  1.1718e+00|   -3.327520|   -3.472357|   -3.713456|   -3.715457|   -3.201832|  -10.461322|    1.676145|
|         383|  1.1716e+00|   -3.323936|   -3.464830|   -3.715236|   -3.717067|   -3.194765|  -10.466326|    1.668861|
|         384|  1.1713e+00|   -3.321662|   -3.458850|   -3.716970|   -3.718607|   -3.189000|  -10.470737|    1.661921|
|         385|  1.1710e+00|   -3.320983|   -3.455179|   -3.718364|   -3.719792|   -3.185224|  -10.474221|    1.655313|
|         386|  1.1707e+00|   -3.321849|   -3.453995|   -3.719321|   -3.720540|   -3.183589|  -10.476586|    1.649028|
|         387|  1.1704e+00|   -3.323928|   -3.455016|   -3.719886|   -3.720903|   -3.183817|  -10.477825|    1.643063|
|         388|  1.1702e+00|   -3.326753|   -3.457708|   -3.720202|   -3.721039|   -3.185415|  -10.478093|    1.637414|
|         389|  1.1699e+00|   -3.329842|   -3.461438|   -3.720460|   -3.721148|   -3.187834|  -10.477668|    1.632078|
|         390|  1.1696e+00|   -3.332785|   -3.465595|   -3.720837|   -3.721411|   -3.190576|  -10.476853|    1.627056|
|         391|  1.1693e+00|   -3.335309|   -3.469690|   -3.721478|   -3.721958|   -3.193273|  -10.475932|    1.622348|
|         392|  1.1691e+00|   -3.337295|   -3.473393|   -3.722456|   -3.722864|   -3.195713|  -10.475114|    1.617954|
|         393|  1.1688e+00|   -3.338743|   -3.476528|   -3.723789|   -3.724130|   -3.197809|  -10.474524|    1.613879|
|         394|  1.1686e+00|   -3.339761|   -3.479090|   -3.725460|   -3.725705|   -3.199598|  -10.474208|    1.610125|
|         395|  1.1683e+00|   -3.340505|   -3.481174|   -3.727406|   -3.727540|   -3.201180|  -10.474157|    1.606698|
|         396|  1.1681e+00|   -3.341127|   -3.482919|   -3.729552|   -3.729559|   -3.202659|  -10.474329|    1.603601|
|         397|  1.1678e+00|   -3.341757|   -3.484475|   -3.731831|   -3.731697|   -3.204132|  -10.474668|    1.600841|
|         398|  1.1675e+00|   -3.342496|   -3.485970|   -3.734190|   -3.733909|   -3.205674|  -10.475136|    1.598422|
|         399|  1.1672e+00|   -3.343402|   -3.487495|   -3.736592|   -3.736177|   -3.207327|  -10.475697|    1.596351|
|         400|  1.1670e+00|   -3.344498|   -3.489107|   -3.739020|   -3.738490|   -3.209101|  -10.476321|    1.594634|
|         401|  1.1668e+00|   -3.345796|   -3.490844|   -3.741491|   -3.740841|   -3.211009|  -10.477009|    1.593278|
|         402|  1.1667e+00|   -3.347284|   -3.492709|   -3.743997|   -3.743255|   -3.213038|  -10.477757|    1.592289|
|         403|  1.1665e+00|   -3.348935|   -3.494697|   -3.746527|   -3.745732|   -3.215163|  -10.478560|    1.591677|
|         404|  1.1663e+00|   -3.350732|   -3.496805|   -3.749089|   -3.748278|   -3.217377|  -10.479416|    1.591448|
|         405|  1.1661e+00|   -3.352668|   -3.499038|   -3.751698|   -3.750901|   -3.219684|  -10.480318|    1.591613|
|         406|  1.1659e+00|   -3.354714|   -3.501387|   -3.754345|   -3.753582|   -3.222063|  -10.481251|    1.592181|
|         407|  1.1656e+00|   -3.356866|   -3.503856|   -3.757037|   -3.756316|   -3.224526|  -10.482197|    1.593164|
|         408|  1.1654e+00|   -3.359126|   -3.506456|   -3.759781|   -3.759111|   -3.227088|  -10.483143|    1.594574|
|         409|  1.1651e+00|   -3.361496|   -3.509195|   -3.762589|   -3.761970|   -3.229760|  -10.484083|    1.596424|
|         410|  1.1649e+00|   -3.363981|   -3.512081|   -3.765460|   -3.764912|   -3.232553|  -10.485026|    1.598730|
|         411|  1.1647e+00|   -3.366559|   -3.515099|   -3.768392|   -3.767928|   -3.235445|  -10.485971|    1.601506|
|         412|  1.1644e+00|   -3.369223|   -3.518243|   -3.771383|   -3.771010|   -3.238427|  -10.486914|    1.604767|
|         413|  1.1642e+00|   -3.371978|   -3.521518|   -3.774447|   -3.774168|   -3.241508|  -10.487862|    1.608525|
|         414|  1.1640e+00|   -3.374819|   -3.524915|   -3.777574|   -3.777406|   -3.244676|  -10.488821|    1.612792|
|         415|  1.1637e+00|   -3.377729|   -3.528425|   -3.780760|   -3.780723|   -3.247917|  -10.489786|    1.617578|
|         416|  1.1635e+00|   -3.380702|   -3.532039|   -3.784002|   -3.784125|   -3.251223|  -10.490750|    1.622890|
|         417|  1.1633e+00|   -3.383744|   -3.535759|   -3.787315|   -3.787618|   -3.254599|  -10.491711|    1.628730|
|         418|  1.1631e+00|   -3.386852|   -3.539581|   -3.790693|   -3.791206|   -3.258045|  -10.492669|    1.635097|
|         419|  1.1628e+00|   -3.390029|   -3.543504|   -3.794149|   -3.794882|   -3.261565|  -10.493636|    1.641988|
|         420|  1.1626e+00|   -3.393275|   -3.547528|   -3.797673|   -3.798663|   -3.265156|  -10.494598|    1.649396|
|         421|  1.1624e+00|   -3.396581|   -3.551649|   -3.801262|   -3.802529|   -3.268808|  -10.495541|    1.657311|
|         422|  1.1622e+00|   -3.399959|   -3.555865|   -3.804924|   -3.806478|   -3.272532|  -10.496469|    1.665721|
|         423|  1.1620e+00|   -3.403395|   -3.560167|   -3.808643|   -3.810491|   -3.276309|  -10.497366|    1.674613|
|         424|  1.1618e+00|   -3.406887|   -3.564547|   -3.812419|   -3.814554|   -3.280136|  -10.498221|    1.683972|
|         425|  1.1616e+00|   -3.410437|   -3.569004|   -3.816255|   -3.818660|   -3.284015|  -10.499031|    1.693785|
|         426|  1.1613e+00|   -3.414045|   -3.573536|   -3.820149|   -3.822803|   -3.287944|  -10.499791|    1.704035|
|         427|  1.1611e+00|   -3.417711|   -3.578139|   -3.824098|   -3.826983|   -3.291921|  -10.500482|    1.714709|
|         428|  1.1609e+00|   -3.421426|   -3.582803|   -3.828093|   -3.831190|   -3.295938|  -10.501093|    1.725791|
|         429|  1.1607e+00|   -3.425183|   -3.587523|   -3.832133|   -3.835408|   -3.299988|  -10.501626|    1.737267|
|         430|  1.1605e+00|   -3.428982|   -3.592294|   -3.836223|   -3.839633|   -3.304072|  -10.502074|    1.749121|
|         431|  1.1603e+00|   -3.432818|   -3.597116|   -3.840358|   -3.843870|   -3.308187|  -10.502431|    1.761336|
|         432|  1.1600e+00|   -3.436705|   -3.601997|   -3.844552|   -3.848133|   -3.312353|  -10.502693|    1.773894|
|         433|  1.1598e+00|   -3.440633|   -3.606928|   -3.848796|   -3.852432|   -3.316557|  -10.502853|    1.786775|
|         434|  1.1597e+00|   -3.444602|   -3.611908|   -3.853094|   -3.856772|   -3.320801|  -10.502913|    1.799959|
|         435|  1.1595e+00|   -3.448612|   -3.616936|   -3.857454|   -3.861148|   -3.325082|  -10.502871|    1.813423|
|         436|  1.1593e+00|   -3.452670|   -3.622019|   -3.861876|   -3.865563|   -3.329406|  -10.502729|    1.827143|
|         437|  1.1591e+00|   -3.456788|   -3.627165|   -3.866369|   -3.870030|   -3.333786|  -10.502472|    1.841097|
|         438|  1.1588e+00|   -3.460973|   -3.632379|   -3.870930|   -3.874554|   -3.338227|  -10.502102|    1.855259|
|         439|  1.1586e+00|   -3.465224|   -3.637663|   -3.875559|   -3.879122|   -3.342721|  -10.501609|    1.869605|
|         440|  1.1585e+00|   -3.469543|   -3.643020|   -3.880246|   -3.883735|   -3.347269|  -10.500991|    1.884112|
|         441|  1.1583e+00|   -3.473933|   -3.648451|   -3.884989|   -3.888386|   -3.351871|  -10.500248|    1.898754|
|         442|  1.1580e+00|   -3.478398|   -3.653961|   -3.889783|   -3.893073|   -3.356531|  -10.499388|    1.913509|
|         443|  1.1578e+00|   -3.482939|   -3.659538|   -3.894628|   -3.897792|   -3.361247|  -10.498392|    1.928355|
|         444|  1.1576e+00|   -3.487548|   -3.665178|   -3.899515|   -3.902535|   -3.366012|  -10.497261|    1.943272|
|         445|  1.1574e+00|   -3.492230|   -3.670874|   -3.904444|   -3.907312|   -3.370833|  -10.495987|    1.958241|
|         446|  1.1573e+00|   -3.496978|   -3.676615|   -3.909405|   -3.912112|   -3.375700|  -10.494563|    1.973247|
|         447|  1.1571e+00|   -3.501787|   -3.682393|   -3.914401|   -3.916928|   -3.380612|  -10.492996|    1.988279|
|         448|  1.1569e+00|   -3.506666|   -3.688205|   -3.919443|   -3.921770|   -3.385586|  -10.491291|    2.003330|
|         449|  1.1567e+00|   -3.511600|   -3.694033|   -3.924527|   -3.926625|   -3.390600|  -10.489444|    2.018396|
|         450|  1.1565e+00|   -3.516584|   -3.699869|   -3.929652|   -3.931505|   -3.395652|  -10.487463|    2.033479|
+-----------------------------------------------------------------------+
|        File Writing Summary       |              Filename             |
+-----------------------------------------------------------------------+
|SU2 binary restart                 |restart_flow.dat                   |
|Paraview                           |flow.vtu                           |
|Paraview surface                   |surface_flow.vtu                   |
+-----------------------------------------------------------------------+
+--------------------------------------------------------------------------------------------------------------------+
|  Inner_Iter|   Time(sec)|    rms[Rho]|   rms[RhoU]|   rms[RhoV]|   rms[RhoW]|   rms[RhoE]|     rms[nu]|          CD|
+--------------------------------------------------------------------------------------------------------------------+
|         451|  1.1717e+00|   -3.521603|   -3.705695|   -3.934814|   -3.936400|   -3.400723|  -10.485346|    2.048582|
|         452|  1.1720e+00|   -3.526660|   -3.711507|   -3.940019|   -3.941321|   -3.405822|  -10.483096|    2.063712|
|         453|  1.1722e+00|   -3.531753|   -3.717297|   -3.945265|   -3.946268|   -3.410945|  -10.480714|    2.078877|
|         454|  1.1724e+00|   -3.536888|   -3.723066|   -3.950556|   -3.951258|   -3.416106|  -10.478204|    2.094090|
|         455|  1.1726e+00|   -3.542060|   -3.728805|   -3.955887|   -3.956292|   -3.421293|  -10.475576|    2.109360|
|         456|  1.1727e+00|   -3.547254|   -3.734500|   -3.961249|   -3.961356|   -3.426488|  -10.472818|    2.124698|
|         457|  1.1729e+00|   -3.552474|   -3.740151|   -3.966644|   -3.966457|   -3.431700|  -10.469923|    2.140114|
|         458|  1.1731e+00|   -3.557722|   -3.745756|   -3.972068|   -3.971594|   -3.436934|  -10.466880|    2.155613|
|         459|  1.1735e+00|   -3.562992|   -3.751314|   -3.977515|   -3.976767|   -3.442182|  -10.463675|    2.171201|
|         460|  1.1735e+00|   -3.568288|   -3.756828|   -3.982991|   -3.981976|   -3.447451|  -10.460289|    2.186878|
|         461|  1.1733e+00|   -3.573615|   -3.762300|   -3.988502|   -3.987224|   -3.452749|  -10.456706|    2.202643|
|         462|  1.1733e+00|   -3.578965|   -3.767723|   -3.994047|   -3.992514|   -3.458070|  -10.452910|    2.218493|
|         463|  1.1731e+00|   -3.584327|   -3.773087|   -3.999614|   -3.997842|   -3.463397|  -10.448885|    2.234420|
|         464|  1.1729e+00|   -3.589698|   -3.778390|   -4.005200|   -4.003208|   -3.468729|  -10.444606|    2.250416|
|         465|  1.1727e+00|   -3.595085|   -3.783643|   -4.010826|   -4.008614|   -3.474079|  -10.440068|    2.266473|
|         466|  1.1725e+00|   -3.600497|   -3.788851|   -4.016475|   -4.014082|   -3.479457|  -10.435273|    2.282577|
|         467|  1.1724e+00|   -3.605918|   -3.794002|   -4.022148|   -4.019588|   -3.484844|  -10.430234|    2.298717|
|         468|  1.1723e+00|   -3.611339|   -3.799092|   -4.027840|   -4.025126|   -3.490229|  -10.424956|    2.314882|
|         469|  1.1722e+00|   -3.616768|   -3.804132|   -4.033550|   -4.030706|   -3.495622|  -10.419469|    2.331059|
|         470|  1.1720e+00|   -3.622198|   -3.809117|   -4.039277|   -4.036316|   -3.501016|  -10.413809|    2.347236|
|         471|  1.1718e+00|   -3.627632|   -3.814054|   -4.045027|   -4.041947|   -3.506411|  -10.408011|    2.363403|
|         472|  1.1716e+00|   -3.633077|   -3.818953|   -4.050805|   -4.047601|   -3.511819|  -10.402109|    2.379547|
|         473|  1.1714e+00|   -3.638525|   -3.823814|   -4.056599|   -4.053271|   -3.517226|  -10.396132|    2.395659|
|         474|  1.1711e+00|   -3.643972|   -3.828638|   -4.062403|   -4.058953|   -3.522629|  -10.390094|    2.411728|
|         475|  1.1709e+00|   -3.649426|   -3.833437|   -4.068235|   -4.064636|   -3.528041|  -10.384019|    2.427743|
|         476|  1.1708e+00|   -3.654875|   -3.838205|   -4.074069|   -4.070318|   -3.533446|  -10.377914|    2.443695|
|         477|  1.1706e+00|   -3.660317|   -3.842944|   -4.079904|   -4.075994|   -3.538848|  -10.371802|    2.459571|
|         478|  1.1704e+00|   -3.665754|   -3.847658|   -4.085737|   -4.081670|   -3.544250|  -10.365655|    2.475361|
|         479|  1.1703e+00|   -3.671180|   -3.852345|   -4.091561|   -4.087333|   -3.549645|  -10.359466|    2.491057|
|         480|  1.1700e+00|   -3.676593|   -3.857004|   -4.097373|   -4.092981|   -3.555036|  -10.353205|    2.506651|
|         481|  1.1698e+00|   -3.681982|   -3.861628|   -4.103166|   -4.098608|   -3.560409|  -10.346859|    2.522135|
|         482|  1.1696e+00|   -3.687351|   -3.866220|   -4.108934|   -4.104221|   -3.565771|  -10.340413|    2.537504|
|         483|  1.1694e+00|   -3.692689|   -3.870771|   -4.114683|   -4.109806|   -3.571110|  -10.333828|    2.552755|
|         484|  1.1692e+00|   -3.697994|   -3.875277|   -4.120409|   -4.115362|   -3.576426|  -10.327055|    2.567883|
|         485|  1.1690e+00|   -3.703255|   -3.879727|   -4.126107|   -4.120881|   -3.581708|  -10.320075|    2.582888|
|         486|  1.1688e+00|   -3.708470|   -3.884116|   -4.131775|   -4.126359|   -3.586956|  -10.312874|    2.597765|
|         487|  1.1687e+00|   -3.713633|   -3.888434|   -4.137410|   -4.131794|   -3.592166|  -10.305455|    2.612510|
|         488|  1.1685e+00|   -3.718739|   -3.892675|   -4.143003|   -4.137187|   -3.597333|  -10.297867|    2.627120|
|         489|  1.1683e+00|   -3.723791|   -3.896830|   -4.148554|   -4.142543|   -3.602460|  -10.290135|    2.641589|
|         490|  1.1681e+00|   -3.728785|   -3.900890|   -4.154059|   -4.147868|   -3.607541|  -10.282315|    2.655915|
|         491|  1.1679e+00|   -3.733715|   -3.904843|   -4.159513|   -4.153159|   -3.612568|  -10.274432|    2.670099|
|         492|  1.1677e+00|   -3.738581|   -3.908682|   -4.164912|   -4.158422|   -3.617543|  -10.266526|    2.684145|
|         493|  1.1674e+00|   -3.743380|   -3.912393|   -4.170252|   -4.163651|   -3.622456|  -10.258632|    2.698059|
|         494|  1.1672e+00|   -3.748108|   -3.915961|   -4.175528|   -4.168843|   -3.627301|  -10.250759|    2.711849|
|         495|  1.1670e+00|   -3.752764|   -3.919378|   -4.180737|   -4.173992|   -3.632077|  -10.242911|    2.725524|
|         496|  1.1669e+00|   -3.757346|   -3.922632|   -4.185876|   -4.179095|   -3.636777|  -10.235094|    2.739091|
|         497|  1.1666e+00|   -3.761855|   -3.925713|   -4.190942|   -4.184151|   -3.641402|  -10.227322|    2.752557|
|         498|  1.1665e+00|   -3.766289|   -3.928611|   -4.195928|   -4.189155|   -3.645943|  -10.219599|    2.765921|
|         499|  1.1663e+00|   -3.770651|   -3.931317|   -4.200835|   -4.194101|   -3.650404|  -10.211914|    2.779177|
|         500|  1.1661e+00|   -3.774935|   -3.933822|   -4.205660|   -4.198986|   -3.654773|  -10.204262|    2.792317|
|         501|  1.1659e+00|   -3.779142|   -3.936118|   -4.210405|   -4.203803|   -3.659051|  -10.196633|    2.805326|
|         502|  1.1656e+00|   -3.783264|   -3.938177|   -4.215065|   -4.208537|   -3.663224|  -10.188978|    2.818190|
|         503|  1.1654e+00|   -3.787293|   -3.939989|   -4.219634|   -4.213180|   -3.667279|  -10.181261|    2.830892|
|         504|  1.1653e+00|   -3.791223|   -3.941544|   -4.224108|   -4.217725|   -3.671206|  -10.173433|    2.843418|
|         505|  1.1651e+00|   -3.795049|   -3.942831|   -4.228481|   -4.222160|   -3.675001|  -10.165432|    2.855757|
|         506|  1.1649e+00|   -3.798769|   -3.943843|   -4.232745|   -4.226477|   -3.678656|  -10.157277|    2.867902|
|         507|  1.1647e+00|   -3.802376|   -3.944568|   -4.236895|   -4.230668|   -3.682165|  -10.148966|    2.879848|
|         508|  1.1644e+00|   -3.805869|   -3.945007|   -4.240927|   -4.234725|   -3.685523|  -10.140468|    2.891596|
|         509|  1.1642e+00|   -3.809231|   -3.945144|   -4.244831|   -4.238631|   -3.688710|  -10.131820|    2.903146|
|         510|  1.1641e+00|   -3.812467|   -3.944982|   -4.248603|   -4.242393|   -3.691727|  -10.123019|    2.914499|
|         511|  1.1639e+00|   -3.815575|   -3.944522|   -4.252239|   -4.246006|   -3.694569|  -10.114056|    2.925656|
|         512|  1.1637e+00|   -3.818553|   -3.943769|   -4.255734|   -4.249474|   -3.697229|  -10.104908|    2.936613|
|         513|  1.1635e+00|   -3.821397|   -3.942727|   -4.259080|   -4.252803|   -3.699700|  -10.095590|    2.947370|
|         514|  1.1633e+00|   -3.824113|   -3.941410|   -4.262276|   -4.255994|   -3.701985|  -10.086122|    2.957921|
|         515|  1.1631e+00|   -3.826711|   -3.939835|   -4.265324|   -4.259053|   -3.704095|  -10.076532|    2.968266|
|         516|  1.1629e+00|   -3.829190|   -3.938020|   -4.268226|   -4.261977|   -3.706026|  -10.066813|    2.978400|
|         517|  1.1627e+00|   -3.831545|   -3.935970|   -4.270980|   -4.264761|   -3.707768|  -10.056999|    2.988324|
|         518|  1.1625e+00|   -3.833784|   -3.933698|   -4.273595|   -4.267413|   -3.709331|  -10.047104|    2.998039|
|         519|  1.1623e+00|   -3.835903|   -3.931226|   -4.276068|   -4.269928|   -3.710704|  -10.037116|    3.007546|
|         520|  1.1622e+00|   -3.837910|   -3.928572|   -4.278400|   -4.272326|   -3.711896|  -10.027029|    3.016853|
|         521|  1.1620e+00|   -3.839818|   -3.925763|   -4.280610|   -4.274621|   -3.712924|  -10.016829|    3.025964|
|         522|  1.1618e+00|   -3.841629|   -3.922826|   -4.282705|   -4.276812|   -3.713790|  -10.006536|    3.034888|
|         523|  1.1616e+00|   -3.843345|   -3.919779|   -4.284691|   -4.278906|   -3.714496|   -9.996151|    3.043635|
|         524|  1.1614e+00|   -3.844977|   -3.916649|   -4.286570|   -4.280924|   -3.715056|   -9.985665|    3.052215|
|         525|  1.1612e+00|   -3.846525|   -3.913457|   -4.288339|   -4.282861|   -3.715474|   -9.975068|    3.060638|
|         526|  1.1610e+00|   -3.847993|   -3.910219|   -4.290000|   -4.284722|   -3.715751|   -9.964354|    3.068912|
|         527|  1.1608e+00|   -3.849387|   -3.906958|   -4.291576|   -4.286500|   -3.715908|   -9.953525|    3.077045|
|         528|  1.1606e+00|   -3.850708|   -3.903695|   -4.293054|   -4.288204|   -3.715947|   -9.942564|    3.085040|
|         529|  1.1605e+00|   -3.851961|   -3.900443|   -4.294435|   -4.289840|   -3.715873|   -9.931480|    3.092898|
|         530|  1.1603e+00|   -3.853147|   -3.897215|   -4.295715|   -4.291407|   -3.715695|   -9.920282|    3.100614|
|         531|  1.1601e+00|   -3.854270|   -3.894027|   -4.296891|   -4.292911|   -3.715424|   -9.908972|    3.108180|
|         532|  1.1600e+00|   -3.855330|   -3.890887|   -4.297965|   -4.294360|   -3.715063|   -9.897566|    3.115583|
|         533|  1.1598e+00|   -3.856320|   -3.887796|   -4.298936|   -4.295754|   -3.714608|   -9.886069|    3.122808|
|         534|  1.1596e+00|   -3.857221|   -3.884754|   -4.299796|   -4.297079|   -3.714041|   -9.874507|    3.129838|
|         535|  1.1594e+00|   -3.858040|   -3.881742|   -4.300565|   -4.298323|   -3.713379|   -9.862884|    3.136655|
|         536|  1.1592e+00|   -3.858774|   -3.878775|   -4.301229|   -4.299477|   -3.712625|   -9.851189|    3.143241|
|         537|  1.1591e+00|   -3.859421|   -3.875859|   -4.301785|   -4.300529|   -3.711784|   -9.839430|    3.149579|
|         538|  1.1589e+00|   -3.859972|   -3.872998|   -4.302226|   -4.301465|   -3.710856|   -9.827605|    3.155656|
[...]
|        6845|  1.1661e+00|   -7.894474|   -7.848273|   -8.260829|   -8.180332|   -7.776774|   -9.340568|    2.569492|
|        6846|  1.1661e+00|   -7.893704|   -7.845053|   -8.261256|   -8.177497|   -7.774442|   -9.337950|    2.569493|
|        6847|  1.1661e+00|   -7.893072|   -7.842016|   -8.261917|   -8.174930|   -7.772191|   -9.335253|    2.569493|
|        6848|  1.1661e+00|   -7.892575|   -7.839167|   -8.262807|   -8.172631|   -7.770025|   -9.332471|    2.569494|
|        6849|  1.1661e+00|   -7.892211|   -7.836506|   -8.263925|   -8.170603|   -7.767950|   -9.329602|    2.569494|
|        6850|  1.1661e+00|   -7.891977|   -7.834035|   -8.265266|   -8.168846|   -7.765971|   -9.326645|    2.569495|
|        6851|  1.1661e+00|   -7.891870|   -7.831756|   -8.266826|   -8.167361|   -7.764091|   -9.323597|    2.569495|
|        6852|  1.1661e+00|   -7.891887|   -7.829668|   -8.268599|   -8.166149|   -7.762313|   -9.320460|    2.569495|
|        6853|  1.1661e+00|   -7.892022|   -7.827771|   -8.270580|   -8.165209|   -7.760641|   -9.317235|    2.569496|
|        6854|  1.1661e+00|   -7.892273|   -7.826064|   -8.272762|   -8.164540|   -7.759076|   -9.313923|    2.569496|
|        6855|  1.1661e+00|   -7.892633|   -7.824546|   -8.275139|   -8.164143|   -7.757622|   -9.310528|    2.569496|
|        6856|  1.1661e+00|   -7.893099|   -7.823216|   -8.277703|   -8.164016|   -7.756278|   -9.307052|    2.569496|
|        6857|  1.1660e+00|   -7.893664|   -7.822071|   -8.280445|   -8.164158|   -7.755047|   -9.303502|    2.569496|
|        6858|  1.1660e+00|   -7.894323|   -7.821109|   -8.283355|   -8.164569|   -7.753929|   -9.299881|    2.569497|
|        6859|  1.1660e+00|   -7.895070|   -7.820327|   -8.286424|   -8.165246|   -7.752924|   -9.296197|    2.569497|
|        6860|  1.1660e+00|   -7.895898|   -7.819722|   -8.289641|   -8.166187|   -7.752032|   -9.292455|    2.569497|
|        6861|  1.1660e+00|   -7.896802|   -7.819289|   -8.292992|   -8.167390|   -7.751253|   -9.288663|    2.569497|
|        6862|  1.1660e+00|   -7.897773|   -7.819026|   -8.296465|   -8.168854|   -7.750585|   -9.284828|    2.569497|
|        6863|  1.1660e+00|   -7.898804|   -7.818927|   -8.300045|   -8.170574|   -7.750028|   -9.280959|    2.569497|
|        6864|  1.1660e+00|   -7.899889|   -7.818987|   -8.303717|   -8.172549|   -7.749580|   -9.277062|    2.569497|
|        6865|  1.1660e+00|   -7.901018|   -7.819203|   -8.307464|   -8.174774|   -7.749239|   -9.273148|    2.569497|
|        6866|  1.1660e+00|   -7.902185|   -7.819567|   -8.311268|   -8.177246|   -7.749003|   -9.269224|    2.569497|
|        6867|  1.1660e+00|   -7.903381|   -7.820074|   -8.315111|   -8.179961|   -7.748870|   -9.265299|    2.569497|
|        6868|  1.1660e+00|   -7.904598|   -7.820718|   -8.318971|   -8.182913|   -7.748836|   -9.261382|    2.569497|
|        6869|  1.1660e+00|   -7.905827|   -7.821491|   -8.322829|   -8.186096|   -7.748900|   -9.257482|    2.569496|
|        6870|  1.1660e+00|   -7.907060|   -7.822388|   -8.326660|   -8.189506|   -7.749056|   -9.253607|    2.569496|
|        6871|  1.1660e+00|   -7.908288|   -7.823401|   -8.330444|   -8.193135|   -7.749303|   -9.249766|    2.569496|
|        6872|  1.1660e+00|   -7.909503|   -7.824521|   -8.334154|   -8.196976|   -7.749636|   -9.245968|    2.569496|
|        6873|  1.1660e+00|   -7.910696|   -7.825740|   -8.337767|   -8.201019|   -7.750050|   -9.242220|    2.569495|
|        6874|  1.1660e+00|   -7.911859|   -7.827051|   -8.341257|   -8.205257|   -7.750542|   -9.238530|    2.569495|
|        6875|  1.1660e+00|   -7.912984|   -7.828443|   -8.344600|   -8.209678|   -7.751108|   -9.234907|    2.569495|
|        6876|  1.1660e+00|   -7.914063|   -7.829907|   -8.347770|   -8.214270|   -7.751741|   -9.231357|    2.569494|
|        6877|  1.1660e+00|   -7.915088|   -7.831435|   -8.350742|   -8.219022|   -7.752438|   -9.227889|    2.569494|
|        6878|  1.1660e+00|   -7.916051|   -7.833015|   -8.353493|   -8.223919|   -7.753192|   -9.224510|    2.569494|
|        6879|  1.1660e+00|   -7.916947|   -7.834638|   -8.355999|   -8.228946|   -7.754000|   -9.221225|    2.569493|
|        6880|  1.1660e+00|   -7.917768|   -7.836293|   -8.358240|   -8.234084|   -7.754854|   -9.218041|    2.569493|
|        6881|  1.1659e+00|   -7.918510|   -7.837969|   -8.360195|   -8.239317|   -7.755750|   -9.214966|    2.569492|
|        6882|  1.1659e+00|   -7.919165|   -7.839656|   -8.361849|   -8.244623|   -7.756682|   -9.212004|    2.569492|
|        6883|  1.1659e+00|   -7.919731|   -7.841342|   -8.363186|   -8.249981|   -7.757643|   -9.209161|    2.569492|
|        6884|  1.1659e+00|   -7.920202|   -7.843015|   -8.364194|   -8.255366|   -7.758628|   -9.206443|    2.569491|
|        6885|  1.1659e+00|   -7.920577|   -7.844666|   -8.364866|   -8.260752|   -7.759631|   -9.203854|    2.569491|
|        6886|  1.1659e+00|   -7.920852|   -7.846283|   -8.365195|   -8.266114|   -7.760646|   -9.201400|    2.569490|
|        6887|  1.1659e+00|   -7.921025|   -7.847854|   -8.365181|   -8.271420|   -7.761667|   -9.199085|    2.569489|
|        6888|  1.1659e+00|   -7.921096|   -7.849370|   -8.364825|   -8.276642|   -7.762687|   -9.196914|    2.569489|
|        6889|  1.1659e+00|   -7.921065|   -7.850819|   -8.364132|   -8.281745|   -7.763701|   -9.194890|    2.569488|
|        6890|  1.1659e+00|   -7.920933|   -7.852192|   -8.363111|   -8.286698|   -7.764704|   -9.193018|    2.569488|
|        6891|  1.1659e+00|   -7.920701|   -7.853479|   -8.361774|   -8.291467|   -7.765688|   -9.191301|    2.569487|
|        6892|  1.1659e+00|   -7.920371|   -7.854671|   -8.360135|   -8.296016|   -7.766650|   -9.189742|    2.569487|
|        6893|  1.1659e+00|   -7.919947|   -7.855760|   -8.358210|   -8.300310|   -7.767583|   -9.188347|    2.569486|
|        6894|  1.1659e+00|   -7.919432|   -7.856738|   -8.356021|   -8.304317|   -7.768483|   -9.187116|    2.569485|
|        6895|  1.1659e+00|   -7.918832|   -7.857599|   -8.353587|   -8.308003|   -7.769345|   -9.186054|    2.569485|
|        6896|  1.1659e+00|   -7.918150|   -7.858336|   -8.350932|   -8.311337|   -7.770164|   -9.185163|    2.569484|
|        6897|  1.1659e+00|   -7.917393|   -7.858945|   -8.348079|   -8.314290|   -7.770937|   -9.184446|    2.569483|
|        6898|  1.1659e+00|   -7.916567|   -7.859423|   -8.345052|   -8.316835|   -7.771660|   -9.183906|    2.569483|
|        6899|  1.1659e+00|   -7.915679|   -7.859765|   -8.341878|   -8.318952|   -7.772329|   -9.183544|    2.569482|
|        6900|  1.1659e+00|   -7.914736|   -7.859971|   -8.338580|   -8.320622|   -7.772942|   -9.183365|    2.569481|
+-----------------------------------------------------------------------+
|        File Writing Summary       |              Filename             |
+-----------------------------------------------------------------------+
|SU2 binary restart                 |restart_flow.dat                   |
|Paraview                           |flow.vtu                           |
|Paraview surface                   |surface_flow.vtu                   |
+-----------------------------------------------------------------------+
+--------------------------------------------------------------------------------------------------------------------+
|  Inner_Iter|   Time(sec)|    rms[Rho]|   rms[RhoU]|   rms[RhoV]|   rms[RhoW]|   rms[RhoE]|     rms[nu]|          CD|
+--------------------------------------------------------------------------------------------------------------------+
|        6901|  1.1669e+00|   -7.913745|   -7.860040|   -8.335184|   -8.321831|   -7.773497|   -9.183369|    2.569481|
|        6902|  1.1669e+00|   -7.912714|   -7.859973|   -8.331714|   -8.322571|   -7.773991|   -9.183559|    2.569480|
|        6903|  1.1669e+00|   -7.911652|   -7.859771|   -8.328193|   -8.322840|   -7.774423|   -9.183937|    2.569480|
|        6904|  1.1669e+00|   -7.910565|   -7.859437|   -8.324646|   -8.322638|   -7.774793|   -9.184505|    2.569479|
|        6905|  1.1669e+00|   -7.909464|   -7.858975|   -8.321093|   -8.321974|   -7.775100|   -9.185265|    2.569478|
|        6906|  1.1669e+00|   -7.908355|   -7.858390|   -8.317555|   -8.320860|   -7.775345|   -9.186220|    2.569478|
|        6907|  1.1669e+00|   -7.907247|   -7.857687|   -8.314053|   -8.319314|   -7.775527|   -9.187370|    2.569477|
|        6908|  1.1669e+00|   -7.906149|   -7.856873|   -8.310606|   -8.317356|   -7.775649|   -9.188717|    2.569476|
|        6909|  1.1669e+00|   -7.905069|   -7.855956|   -8.307230|   -8.315013|   -7.775712|   -9.190264|    2.569476|
|        6910|  1.1669e+00|   -7.904015|   -7.854943|   -8.303942|   -8.312311|   -7.775718|   -9.192011|    2.569475|
|        6911|  1.1669e+00|   -7.902995|   -7.853844|   -8.300757|   -8.309283|   -7.775670|   -9.193961|    2.569474|
|        6912|  1.1669e+00|   -7.902016|   -7.852667|   -8.297689|   -8.305960|   -7.775571|   -9.196115|    2.569474|
|        6913|  1.1669e+00|   -7.901087|   -7.851423|   -8.294752|   -8.302376|   -7.775425|   -9.198475|    2.569473|
|        6914|  1.1669e+00|   -7.900215|   -7.850121|   -8.291956|   -8.298566|   -7.775235|   -9.201041|    2.569473|
|        6915|  1.1669e+00|   -7.899406|   -7.848771|   -8.289314|   -8.294563|   -7.775006|   -9.203816|    2.569472|
|        6916|  1.1669e+00|   -7.898668|   -7.847385|   -8.286835|   -8.290403|   -7.774743|   -9.206801|    2.569471|
|        6917|  1.1669e+00|   -7.898008|   -7.845972|   -8.284527|   -8.286117|   -7.774450|   -9.209997|    2.569471|
|        6918|  1.1669e+00|   -7.897431|   -7.844543|   -8.282400|   -8.281738|   -7.774132|   -9.213406|    2.569470|
|        6919|  1.1669e+00|   -7.896945|   -7.843108|   -8.280461|   -8.277297|   -7.773794|   -9.217028|    2.569470|
|        6920|  1.1669e+00|   -7.896553|   -7.841679|   -8.278716|   -8.272822|   -7.773443|   -9.220864|    2.569469|
|        6921|  1.1669e+00|   -7.896263|   -7.840265|   -8.277172|   -8.268342|   -7.773084|   -9.224917|    2.569469|
|        6922|  1.1669e+00|   -7.896079|   -7.838876|   -8.275834|   -8.263881|   -7.772722|   -9.229186|    2.569468|
|        6923|  1.1669e+00|   -7.896006|   -7.837523|   -8.274706|   -8.259464|   -7.772363|   -9.233672|    2.569468|
|        6924|  1.1669e+00|   -7.896049|   -7.836213|   -8.273794|   -8.255113|   -7.772014|   -9.238378|    2.569467|
|        6925|  1.1669e+00|   -7.896212|   -7.834958|   -8.273100|   -8.250848|   -7.771680|   -9.243302|    2.569467|
|        6926|  1.1669e+00|   -7.896498|   -7.833765|   -8.272629|   -8.246687|   -7.771366|   -9.248445|    2.569467|
|        6927|  1.1669e+00|   -7.896913|   -7.832644|   -8.272382|   -8.242648|   -7.771080|   -9.253808|    2.569466|
|        6928|  1.1669e+00|   -7.897458|   -7.831601|   -8.272362|   -8.238745|   -7.770825|   -9.259392|    2.569466|
|        6929|  1.1669e+00|   -7.898138|   -7.830645|   -8.272571|   -8.234993|   -7.770609|   -9.265195|    2.569465|
|        6930|  1.1669e+00|   -7.898954|   -7.829784|   -8.273011|   -8.231405|   -7.770437|   -9.271217|    2.569465|
|        6931|  1.1669e+00|   -7.899911|   -7.829024|   -8.273682|   -8.227992|   -7.770313|   -9.277458|    2.569465|
|        6932|  1.1669e+00|   -7.901009|   -7.828371|   -8.274585|   -8.224764|   -7.770243|   -9.283917|    2.569465|
|        6933|  1.1669e+00|   -7.902251|   -7.827833|   -8.275722|   -8.221730|   -7.770232|   -9.290593|    2.569464|
|        6934|  1.1668e+00|   -7.903639|   -7.827414|   -8.277090|   -8.218898|   -7.770286|   -9.297483|    2.569464|
|        6935|  1.1668e+00|   -7.905174|   -7.827121|   -8.278691|   -8.216277|   -7.770408|   -9.304585|    2.569464|
|        6936|  1.1668e+00|   -7.906856|   -7.826958|   -8.280523|   -8.213871|   -7.770603|   -9.311897|    2.569464|
|        6937|  1.1668e+00|   -7.908688|   -7.826930|   -8.282584|   -8.211688|   -7.770875|   -9.319416|    2.569463|
|        6938|  1.1668e+00|   -7.910669|   -7.827042|   -8.284873|   -8.209731|   -7.771229|   -9.327137|    2.569463|
|        6939|  1.1668e+00|   -7.912799|   -7.827296|   -8.287388|   -8.208007|   -7.771667|   -9.335055|    2.569463|
|        6940|  1.1668e+00|   -7.915079|   -7.827698|   -8.290125|   -8.206518|   -7.772195|   -9.343164|    2.569463|
|        6941|  1.1668e+00|   -7.917508|   -7.828251|   -8.293081|   -8.205268|   -7.772814|   -9.351458|    2.569463|
|        6942|  1.1668e+00|   -7.920085|   -7.828957|   -8.296253|   -8.204261|   -7.773528|   -9.359929|    2.569463|
|        6943|  1.1668e+00|   -7.922808|   -7.829819|   -8.299635|   -8.203499|   -7.774340|   -9.368568|    2.569463|
|        6944|  1.1668e+00|   -7.925677|   -7.830839|   -8.303222|   -8.202984|   -7.775252|   -9.377365|    2.569463|
|        6945|  1.1668e+00|   -7.928689|   -7.832020|   -8.307008|   -8.202718|   -7.776267|   -9.386307|    2.569463|
|        6946|  1.1668e+00|   -7.931842|   -7.833363|   -8.310985|   -8.202703|   -7.777386|   -9.395382|    2.569463|
|        6947|  1.1668e+00|   -7.935132|   -7.834870|   -8.315147|   -8.202941|   -7.778612|   -9.404573|    2.569463|
|        6948|  1.1668e+00|   -7.938557|   -7.836542|   -8.319483|   -8.203433|   -7.779945|   -9.413863|    2.569463|
|        6949|  1.1668e+00|   -7.942113|   -7.838379|   -8.323985|   -8.204179|   -7.781387|   -9.423235|    2.569463|
|        6950|  1.1668e+00|   -7.945795|   -7.840383|   -8.328640|   -8.205180|   -7.782939|   -9.432665|    2.569463|
|        6951|  1.1668e+00|   -7.949598|   -7.842552|   -8.333437|   -8.206437|   -7.784600|   -9.442130|    2.569463|
|        6952|  1.1668e+00|   -7.953517|   -7.844887|   -8.338362|   -8.207950|   -7.786373|   -9.451603|    2.569463|
|        6953|  1.1668e+00|   -7.957546|   -7.847387|   -8.343399|   -8.209718|   -7.788255|   -9.461057|    2.569463|
|        6954|  1.1668e+00|   -7.961678|   -7.850052|   -8.348534|   -8.211742|   -7.790248|   -9.470460|    2.569464|
|        6955|  1.1668e+00|   -7.965906|   -7.852879|   -8.353746|   -8.214021|   -7.792350|   -9.479777|    2.569464|
|        6956|  1.1668e+00|   -7.970220|   -7.855868|   -8.359018|   -8.216554|   -7.794560|   -9.488974|    2.569464|
|        6957|  1.1668e+00|   -7.974614|   -7.859015|   -8.364327|   -8.219339|   -7.796876|   -9.498010|    2.569464|
|        6958|  1.1668e+00|   -7.979076|   -7.862319|   -8.369651|   -8.222376|   -7.799298|   -9.506847|    2.569465|
|        6959|  1.1668e+00|   -7.983596|   -7.865776|   -8.374966|   -8.225662|   -7.801823|   -9.515441|    2.569465|
|        6960|  1.1668e+00|   -7.988164|   -7.869383|   -8.380246|   -8.229196|   -7.804449|   -9.523750|    2.569465|
|        6961|  1.1668e+00|   -7.992767|   -7.873135|   -8.385464|   -8.232973|   -7.807171|   -9.531731|    2.569466|
|        6962|  1.1668e+00|   -7.997393|   -7.877028|   -8.390591|   -8.236992|   -7.809988|   -9.539340|    2.569466|
|        6963|  1.1668e+00|   -8.002028|   -7.881056|   -8.395597|   -8.241249|   -7.812896|   -9.546534|    2.569466|

----------------------------- Solver Exit -------------------------------
All convergence criteria satisfied.
+-----------------------------------------------------------------------+
|      Convergence Field     |     Value    |   Criterion  |  Converged |
+-----------------------------------------------------------------------+
|                    rms[Rho]|      -8.00203|          < -8|         Yes|
+-----------------------------------------------------------------------+
-------------------------------------------------------------------------
+-----------------------------------------------------------------------+
|        File Writing Summary       |              Filename             |
+-----------------------------------------------------------------------+
|SU2 binary restart                 |restart_flow.dat                   |
|Paraview                           |flow.vtu                           |
|Paraview surface                   |surface_flow.vtu                   |
+-----------------------------------------------------------------------+

------------------------- Solver Postprocessing -------------------------
Deleted CNumerics container.
Deleted CIntegration container.
Deleted CSolver container.
Deleted CIteration container.
Deleted CInterface container.
Deleted CGeometry container.
Deleted CFreeFormDefBox class.
Deleted CSurfaceMovement class.
Deleted CVolumetricMovement class.
Deleted CConfig container.
Deleted nInst container.
Deleted COutput class.
-------------------------------------------------------------------------

------------------------- Exit Success (SU2_CFD) ------------------------


scontrol show job 1228489
JobId=1228489 JobName=m1.5_coarse
   UserId=anthonyy(3152141) GroupId=anthonyy(3152141) MCS_label=N/A
   Priority=659243 Nice=0 Account=rrg-jphickey QOS=normal
   JobState=COMPLETING Reason=None Dependency=(null)
   Requeue=0 Restarts=0 BatchFlag=1 Reboot=0 ExitCode=0:0
   RunTime=02:16:52 TimeLimit=18:00:00 TimeMin=N/A
   SubmitTime=2026-03-25T02:35:46 EligibleTime=2026-03-25T02:35:46
   AccrueTime=2026-03-25T02:35:46
   StartTime=2026-03-25T17:02:04 EndTime=2026-03-25T19:18:56 Deadline=N/A
   SuspendTime=None SecsPreSuspend=0 LastSchedEval=2026-03-25T17:02:04 Scheduler=Main
   Partition=compute AllocNode:Sid=tri-login01:1156378
   ReqNodeList=(null) ExcNodeList=(null)
   NodeList=tri[0737-0738]
   BatchHost=tri0737
   NumNodes=2 NumCPUs=384 NumTasks=128 CPUs/Task=1 ReqB:S:C:T=0:0:*:*
   ReqTRES=cpu=384,mem=1534000M,node=2,billing=384
   AllocTRES=cpu=384,mem=1534000M,node=2,billing=384
   Socks/Node=* NtasksPerN:B:S:C=64:0:*:* CoreSpec=*
   MinCPUsNode=64 MinMemoryNode=767000M MinTmpDiskNode=0
   Features=(null) DelayBoot=00:00:00
   OverSubscribe=NO Contiguous=0 Licenses=(null) LicensesAlloc=(null) Network=(null)
   Command=/scratch/anthonyy/reentry/orion/config/run.sh
   SubmitLine=SBATCH --comment /opt/slurm/bin/sbatch --export=NONE --get-user-env --job-name m1.5_coarse --nodes 2 --ntasks-per-node 64 --cpus-per-task 1 --mem 0 --time 18:00:00 --account rrg-jphickey --output orion_%j.out --error orion_%j.err --chdir /scratch/anthonyy/reentry/orion/cases/m1.5_coarse /scratch/anthonyy/reentry/orion/config/run.sh /scratch/anthonyy/reentry/orion/config/generated/m1.5_coarse.cfg --export=NONE --get-user-env --job-name m1.5_coarse --nodes 2 --ntasks-per-node 64 --cpus-per-task 1 --mem 0 --time 18:00:00 --account rrg-jphickey --output orion_%j.out --error orion_%j.err --chdir /scratch/anthonyy/reentry/orion/cases/m1.5_coarse /scratch/anthonyy/reentry/orion/config/run.sh /scratch/anthonyy/reentry/orion/config/generated/m1.5_coarse.cfg
   WorkDir=/scratch/anthonyy/reentry/orion/cases/m1.5_coarse
   Comment=/opt/slurm/bin/sbatch --export=NONE --get-user-env --job-name m1.5_coarse --nodes 2 --ntasks-per-node 64 --cpus-per-task 1 --mem 0 --time 18:00:00 --account rrg-jphickey --output orion_%j.out --error orion_%j.err --chdir /scratch/anthonyy/reentry/orion/cases/m1.5_coarse /scratch/anthonyy/reentry/orion/config/run.sh /scratch/anthonyy/reentry/orion/config/generated/m1.5_coarse.cfg
   StdErr=/scratch/anthonyy/reentry/orion/cases/m1.5_coarse/orion_1228489.err
   StdIn=/dev/null
   StdOut=/scratch/anthonyy/reentry/orion/cases/m1.5_coarse/orion_1228489.out
   TresPerTask=cpu=1

sacct -j 1228489
JobID           JobName    Account    Elapsed  MaxVMSize     MaxRSS  SystemCPU    UserCPU ExitCode 
------------ ---------- ---------- ---------- ---------- ---------- ---------- ---------- -------- 
1228489      m1.5_coar+ rrg-jphic+   02:16:52                         00:00:00   00:00:00      0:0 
1228489.bat+      batch rrg-jphic+   02:16:52                         00:00:00   00:00:00      0:0 
1228489.ext+     extern rrg-jphic+   02:16:52                         00:00:00   00:00:00      0:0 
1228489.0       SU2_CFD rrg-jphic+   02:16:45                         00:00:00   00:00:00      0:0 

