Nodes:  tri[0273,0275]
Tasks:  128
NPN:    64
Config: /scratch/anthonyy/reentry/orion/config/generated/m3_aoa60.cfg

-------------------------------------------------------------------------
|    ___ _   _ ___                                                      |
|   / __| | | |_  )   Release 7.5.1 "Blackbird"                         |
|   \__ \ |_| |/ /                                                      |
|   |___/\___//___|   Suite (Computational Fluid Dynamics Code)         |
|                                                                       |
-------------------------------------------------------------------------
| SU2 Project Website: https://su2code.github.io                        |
|                                                                       |
| The SU2 Project is maintained by the SU2 Foundation                   |
| (http://su2foundation.org)                                            |
-------------------------------------------------------------------------
| Copyright 2012-2023, SU2 Contributors                                 |
|                                                                       |
| SU2 is free software; you can redistribute it and/or                  |
| modify it under the terms of the GNU Lesser General Public            |
| License as published by the Free Software Foundation; either          |
| version 2.1 of the License, or (at your option) any later version.    |
|                                                                       |
| SU2 is distributed in the hope that it will be useful,                |
| but WITHOUT ANY WARRANTY; without even the implied warranty of        |
| MERCHANTABILITY or FITNESS FOR A PARTICULAR PURPOSE. See the GNU      |
| Lesser General Public License for more details.                       |
|                                                                       |
| You should have received a copy of the GNU Lesser General Public      |
| License along with SU2. If not, see <http://www.gnu.org/licenses/>.   |
-------------------------------------------------------------------------

Parsing config file for zone 0

----------------- Physical Case Definition ( Zone 0 ) -------------------
Compressible RANS equations.
Turbulence model: Spalart-Allmaras-noft2
Hybrid RANS/LES: No Hybrid RANS/LES
Mach number: 3.
Angle of attack (AoA): 60 deg, and angle of sideslip (AoS): 0 deg.
Reynolds number: 3.43114e+08. Reference length 5.
No restart solution, use the values at infinity (freestream).
Non-Dimensional simulation (V=1.0, Rho=1.0, T=1.0 at the farfield).
The reference area will be computed using y(2D) or z(3D) projection.
The semi-span will be computed using the max y(3D) value.
The reference length is 0.64607 m.
Reference origin for moment evaluation is (0.25, 0, 0).
Surface(s) where the force coefficients are evaluated: ORION_SURFACE.

Input mesh file name: ../../mesh/fine.su2

--------------- Space Numerical Integration ( Zone 0 ) ------------------
Jameson-Schmidt-Turkel scheme (2nd order in space) for the flow inviscid terms.
JST viscous coefficients (2nd & 4th): 0.5, 0.02.
The method includes a grid stretching correction (p = 0.3).
Scalar upwind solver for the turbulence model.
First order integration in space.
Average of gradients with correction (viscous flow terms).
Average of gradients with correction (viscous turbulence terms).
Gradient for upwind reconstruction: Green-Gauss.
Gradient for viscous and source terms: Green-Gauss.

--------------- Time Numerical Integration  ( Zone 0 ) ------------------
Local time stepping (steady state simulation).
Euler implicit method for the flow equations.
FGMRES is used for solving the linear system.
Using a ILU(0) preconditioning.
Convergence criteria of the linear solver: 1e-06.
Max number of linear iterations: 100.
CFL adaptation. Factor down: 0.5, factor up: 1.2,
                lower limit: 0.1, upper limit: 3,
                acceptable linear residual: 0.001.
Courant-Friedrichs-Lewy number:        1
Euler implicit time integration for the turbulence model.

------------------ Convergence Criteria  ( Zone 0 ) ---------------------
Maximum number of solver subiterations: 999999.
Begin convergence monitoring at iteration 5.
Residual minimum value: 1e-8.
Cauchy series min. value: 1e-10.
Number of Cauchy elements: 100.
Begin windowed time average at iteration 0.

-------------------- Output Information ( Zone 0 ) ----------------------
File writing frequency: 
+------------------------------------+
|                     File| Frequency|
+------------------------------------+
|                  RESTART|       150|
|                 PARAVIEW|       150|
|         SURFACE_PARAVIEW|       150|
+------------------------------------+
Writing the convergence history file every 1 inner iterations.
Writing the screen convergence history every 1 inner iterations.
The tabular file format is CSV (.csv).
Convergence history file name: history.
Forces breakdown file name: forces_breakdown.dat.
Surface file name: surface_flow.
Volume file name: flow.
Restart file name: restart_flow.

------------- Config File Boundary Information ( Zone 0 ) ---------------
+-----------------------------------------------------------------------+
|                        Marker Type|                        Marker Name|
+-----------------------------------------------------------------------+
|                          Far-field|                           FARFIELD|
+-----------------------------------------------------------------------+
|                     Heat flux wall|                      ORION_SURFACE|
+-----------------------------------------------------------------------+

-------------------- Output Preprocessing ( Zone 0 ) --------------------

WARNING: SURFACE_PRESSURE_DROP can only be computed for at least 2 surfaces (outlet, inlet, ...)

Screen output fields: INNER_ITER, WALL_TIME, RMS_DENSITY, RMS_MOMENTUM-X, RMS_MOMENTUM-Y, RMS_MOMENTUM-Z, RMS_ENERGY, RMS_NU_TILDE, DRAG
History output group(s): ITER, RMS_RES
Convergence field(s): RMS_DENSITY
Warning: No (valid) fields chosen for time convergence monitoring. Time convergence monitoring inactive.
Volume output fields: MACH, PRESSURE, TEMPERATURE, DENSITY, HEAT_FLUX, Y_PLUS, COORDINATES, SOLUTION

------------------- Geometry Preprocessing ( Zone 0 ) -------------------
Three dimensional problem.
62211324 grid points before partitioning.
190879888 volume elements before partitioning.
2 surface markers.
4104 boundary elements in index 0 (Marker = FARFIELD).
1824836 boundary elements in index 1 (Marker = ORION_SURFACE).
Executing the partitioning functions.
Building the graph adjacency structure.
Calling ParMETIS... graph partitioning complete (4959327 edge cuts).
Distributing ParMETIS coloring.
Rebalancing vertices.
Rebalancing volume element connectivity.
Rebalancing markers and surface elements.
66952290 vertices including ghost points. 
197997438 interior elements including halo cells. 
103171259 tetrahedra.
94500655 prisms.
325524 pyramids.
Establishing MPI communication patterns.
Setting point connectivity.
Renumbering points (Reverse Cuthill McKee Ordering).
Recomputing point connectivity.
Setting element connectivity.
Checking the numerical grid orientation.
All volume elements are correctly orientend.
All surface elements are correctly orientend.
Identifying edges and vertices.
Setting the control volume structure.
Volume of the computational grid: 535693.
Searching for the closest normal neighbors to the surfaces.
Storing a mapping from global to local point index.
Compute the surface curvature.
Max K: 132.896. Mean K: 3.9104. Standard deviation K: 7.49569.
Checking for periodicity.
Computing mesh quality statistics for the dual control volumes.
+--------------------------------------------------------------+
|           Mesh Quality Metric|        Minimum|        Maximum|
+--------------------------------------------------------------+
|    Orthogonality Angle (deg.)|        53.0661|             90|
|     CV Face Area Aspect Ratio|        1.01143|        75298.5|
|           CV Sub-Volume Ratio|        1.00029|        45.0258|
+--------------------------------------------------------------+
Finding max control volume width.
Communicating number of neighbors.
Reference area = 11.531 m^2.
Semi-span length = 2.49999 m.
Wetted area = 57.9072 m^2.
Area projection in the x-plane = 19.6343 m^2, y-plane = 11.531 m^2, z-plane = 11.531 m^2.
Max. coordinate in the x-direction = 2.575 m, y-direction = 2.49999 m, z-direction = 2.49999 m.
Min. coordinate in the x-direction = -0.71 m, y-direction = -2.49999 m, z-direction = -2.5 m.
Computing wall distances.

-------------------- Solver Preprocessing ( Zone 0 ) --------------------
Viscous flow: Computing pressure using the ideal gas law
based on the free-stream temperature and a density computed
from the Reynolds number.
Force coefficients computed using free-stream values.

-- Models:
+------------------------------------------------------------------------------+
|          Viscosity Model|        Conductivity Model|              Fluid Model|
+------------------------------------------------------------------------------+
|               SUTHERLAND|          CONSTANT_PRANDTL|             STANDARD_AIR|
+------------------------------------------------------------------------------+
-- Fluid properties:
+------------------------------------------------------------------------------+
|                  Name|    Dim. value|    Ref. value|      Unit|Non-dim. value|
+------------------------------------------------------------------------------+
|        Ref. Viscosity|     1.716e-05|       1227.87|   N.s/m^2|   1.39755e-08|
|      Sutherland Temp.|        273.15|        288.15|         K|      0.947944|
|     Sutherland Const.|         110.4|        288.15|         K|      0.383134|
+------------------------------------------------------------------------------+
|        Prandtl (Lam.)|             -|             -|         -|          0.72|
|       Prandtl (Turb.)|             -|             -|         -|           0.9|
+------------------------------------------------------------------------------+
|          Gas Constant|       287.058|       3616.93|  N.m/kg.K|     0.0793651|
|      Spec. Heat Ratio|             -|             -|         -|           1.4|
+------------------------------------------------------------------------------+
-- Initial and free-stream conditions:
+------------------------------------------------------------------------------+
|                  Name|    Dim. value|    Ref. value|      Unit|Non-dim. value|
+------------------------------------------------------------------------------+
|       Static Pressure|       99485.6|   1.25352e+06|        Pa|     0.0793651|
|               Density|       1.20274|       1.20274|    kg/m^3|             1|
|           Temperature|        288.15|        288.15|         K|             1|
|          Total Energy|        727899|   1.04222e+06|   m^2/s^2|      0.698413|
|            Velocity-X|       510.446|       1020.89|       m/s|           0.5|
|            Velocity-Y|             0|       1020.89|       m/s|             0|
|            Velocity-Z|       884.118|       1020.89|       m/s|      0.866025|
|    Velocity Magnitude|       1020.89|       1020.89|       m/s|             1|
+------------------------------------------------------------------------------+
|             Viscosity|    1.7893e-05|       1227.87|   N.s/m^2|   1.45724e-08|
|          Conductivity|             -|   4.44111e+06|   W/m^2.K|             -|
|     Turb. Kin. Energy|       3908.32|   1.04222e+06|   m^2/s^2|       0.00375|
|     Spec. Dissipation|   2.62712e+07|       1020.89|       1/s|       25733.6|
+------------------------------------------------------------------------------+
|           Mach Number|             -|             -|         -|             3|
|       Reynolds Number|             -|             -|         -|   3.43114e+08|
+------------------------------------------------------------------------------+
Initialize Jacobian structure (Navier-Stokes). MG level: 0.
Initialize Jacobian structure (SA model).

------------------- Numerics Preprocessing ( Zone 0 ) -------------------

----------------- Integration Preprocessing ( Zone 0 ) ------------------

------------------- Iteration Preprocessing ( Zone 0 ) ------------------
Euler/Navier-Stokes/RANS fluid iteration.

------------------------------ Begin Solver -----------------------------

Simulation Run using the Single-zone Driver
WARNING: SU2 was not compiled for an AVX-capable architecture. Performance could be better,
         see https://su2code.github.io/docs_v7/Build-SU2-Linux-MacOS/#compiler-optimizations
+--------------------------------------------------------------------------------------------------------------------+
|  Inner_Iter|   Time(sec)|    rms[Rho]|   rms[RhoU]|   rms[RhoV]|   rms[RhoW]|   rms[RhoE]|     rms[nu]|          CD|
+--------------------------------------------------------------------------------------------------------------------+
|           0|  6.5276e+00|   -5.358670|  -16.246297|  -17.070697|  -16.014921|   -5.467815|  -12.836924|    0.651764|
|           1|  6.3323e+00|   -5.508076|   -5.817762|   -6.407166|   -5.553556|   -5.629909|  -12.789215|    0.858590|
|           2|  6.2249e+00|   -5.543681|   -5.891561|   -6.453486|   -5.630143|   -5.652135|  -12.990350|    1.057501|
|           3|  6.2740e+00|   -5.564692|   -5.928761|   -6.467068|   -5.676893|   -5.664373|  -13.098810|    1.239361|
|           4|  6.3975e+00|   -5.577523|   -5.947478|   -6.448912|   -5.713527|   -5.670925|  -13.167467|    1.400581|
|           5|  6.5488e+00|   -5.587655|   -5.952305|   -6.406878|   -5.746030|   -5.675737|  -13.211176|    1.526831|
|           6|  6.7236e+00|   -5.599275|   -5.942240|   -6.359818|   -5.776801|   -5.682408|  -13.234214|    1.600581|
|           7|  6.8475e+00|   -5.610409|   -5.913137|   -6.315436|   -5.801334|   -5.688454|  -13.246354|    1.609312|
|           8|  6.9544e+00|   -5.613935|   -5.876151|   -6.277331|   -5.805559|   -5.686783|  -13.249033|    1.561575|
|           9|  7.0470e+00|   -5.604976|   -5.847831|   -6.244463|   -5.789463|   -5.670737|  -13.237845|    1.465591|
|          10|  7.2004e+00|   -5.586415|   -5.836801|   -6.213173|   -5.763418|   -5.644885|  -13.222572|    1.347391|
|          11|  7.2681e+00|   -5.565938|   -5.832519|   -6.185402|   -5.743998|   -5.619291|  -13.210446|    1.235073|
|          12|  7.3216e+00|   -5.551461|   -5.822978|   -6.166528|   -5.739271|   -5.601836|  -13.197578|    1.154449|
|          13|  7.3720e+00|   -5.550235|   -5.820479|   -6.157859|   -5.748754|   -5.599386|  -13.182483|    1.108155|
|          14|  7.4141e+00|   -5.559349|   -5.828414|   -6.156904|   -5.766783|   -5.608626|  -13.167596|    1.096794|
|          15|  7.4442e+00|   -5.571552|   -5.841083|   -6.161096|   -5.783207|   -5.622421|  -13.156324|    1.112757|
|          16|  7.4698e+00|   -5.585100|   -5.854399|   -6.172634|   -5.794262|   -5.639005|  -13.147328|    1.143348|
|          17|  7.4959e+00|   -5.598250|   -5.870160|   -6.188563|   -5.798744|   -5.655193|  -13.138418|    1.178984|
|          18|  7.5241e+00|   -5.609634|   -5.884728|   -6.204587|   -5.801695|   -5.669527|  -13.130884|    1.211932|
|          19|  7.5428e+00|   -5.619552|   -5.899177|   -6.217580|   -5.805717|   -5.682187|  -13.123516|    1.236910|
|          20|  7.5775e+00|   -5.625323|   -5.905899|   -6.225935|   -5.810336|   -5.689394|  -13.114510|    1.252542|
|          21|  7.6118e+00|   -5.629082|   -5.908305|   -6.231003|   -5.814020|   -5.694433|  -13.104261|    1.260916|
|          22|  7.6414e+00|   -5.630008|   -5.906370|   -6.233617|   -5.814419|   -5.696404|  -13.097537|    1.265714|
|          23|  7.6674e+00|   -5.628690|   -5.906063|   -6.234142|   -5.812502|   -5.695293|  -13.090416|    1.269512|
|          24|  7.6907e+00|   -5.626724|   -5.907131|   -6.232677|   -5.810764|   -5.692987|  -13.084542|    1.273157|
|          25|  7.6960e+00|   -5.626725|   -5.909373|   -6.230093|   -5.810597|   -5.692947|  -13.075257|    1.276551|
|          26|  7.7104e+00|   -5.627132|   -5.908111|   -6.226544|   -5.810922|   -5.693402|  -13.067094|    1.279362|
|          27|  7.7450e+00|   -5.626803|   -5.904438|   -6.223611|   -5.810714|   -5.693271|  -13.056475|    1.281252|
|          28|  7.7743e+00|   -5.624228|   -5.899408|   -6.221546|   -5.809500|   -5.690388|  -13.050431|    1.282103|
|          29|  7.7972e+00|   -5.620396|   -5.896415|   -6.220527|   -5.807184|   -5.685640|  -13.046524|    1.282173|
|          30|  7.8221e+00|   -5.617897|   -5.897891|   -6.220210|   -5.805518|   -5.682105|  -13.042362|    1.281936|
|          31|  7.8279e+00|   -5.617652|   -5.900379|   -6.219888|   -5.805186|   -5.681209|  -13.037255|    1.281778|
|          32|  7.8290e+00|   -5.619314|   -5.901323|   -6.218653|   -5.805339|   -5.683058|  -13.030511|    1.281804|
|          33|  7.8411e+00|   -5.620660|   -5.897834|   -6.217154|   -5.804612|   -5.685393|  -13.021966|    1.281906|
|          34|  7.8599e+00|   -5.619571|   -5.893291|   -6.215475|   -5.801563|   -5.684690|  -13.014783|    1.281956|
|          35|  7.8628e+00|   -5.614975|   -5.888103|   -6.214509|   -5.796727|   -5.679050|  -13.011857|    1.281931|
|          36|  7.8672e+00|   -5.610247|   -5.887764|   -6.214802|   -5.790984|   -5.672566|  -13.006068|    1.281912|
|          37|  7.8664e+00|   -5.606766|   -5.886894|   -6.215042|   -5.784740|   -5.667220|  -13.000485|    1.282002|
|          38|  7.8668e+00|   -5.605530|   -5.884164|   -6.214234|   -5.777361|   -5.664692|  -12.990886|    1.282260|
|          39|  7.8669e+00|   -5.603718|   -5.875782|   -6.212391|   -5.766680|   -5.662316|  -12.978236|    1.282662|
|          40|  7.8689e+00|   -5.598102|   -5.863473|   -6.209248|   -5.750740|   -5.655670|  -12.962714|    1.283115|
|          41|  7.8701e+00|   -5.587422|   -5.848434|   -6.205881|   -5.729935|   -5.642388|  -12.949553|    1.283526|
|          42|  7.8706e+00|   -5.573881|   -5.834709|   -6.203547|   -5.706066|   -5.625097|  -12.934562|    1.283839|
|          43|  7.8730e+00|   -5.559425|   -5.819897|   -6.201077|   -5.679993|   -5.606733|  -12.917658|    1.284065|
|          44|  7.8731e+00|   -5.545335|   -5.801470|   -6.197652|   -5.652405|   -5.589323|  -12.898583|    1.284250|
|          45|  7.8728e+00|   -5.530607|   -5.779216|   -6.192753|   -5.623039|   -5.572377|  -12.877200|    1.284438|
|          46|  7.8754e+00|   -5.512904|   -5.753742|   -6.185883|   -5.591948|   -5.553398|  -12.854986|    1.284636|
|          47|  7.8776e+00|   -5.492039|   -5.727978|   -6.177728|   -5.560201|   -5.531544|  -12.832459|    1.284823|
|          48|  7.8774e+00|   -5.469053|   -5.703234|   -6.169576|   -5.529133|   -5.507653|  -12.812173|    1.284971|
|          49|  7.8751e+00|   -5.446443|   -5.680662|   -6.161724|   -5.499999|   -5.484584|  -12.792368|    1.285074|
|          50|  7.8766e+00|   -5.425320|   -5.658324|   -6.153597|   -5.473185|   -5.463830|  -12.774251|    1.285157|
|          51|  7.8844e+00|   -5.406159|   -5.636834|   -6.144970|   -5.448555|   -5.446006|  -12.756245|    1.285255|
|          52|  7.8855e+00|   -5.387733|   -5.615904|   -6.135485|   -5.425773|   -5.429755|  -12.739927|    1.285390|
|          53|  7.8862e+00|   -5.369783|   -5.596744|   -6.125571|   -5.404934|   -5.414380|  -12.724155|    1.285547|
|          54|  7.8932e+00|   -5.352398|   -5.579730|   -6.115747|   -5.386213|   -5.399551|  -12.710397|    1.285685|
|          55|  7.9014e+00|   -5.336506|   -5.565267|   -6.106691|   -5.369866|   -5.386132|  -12.698632|    1.285762|
|          56|  7.9019e+00|   -5.322730|   -5.552703|   -6.098619|   -5.356009|   -5.374902|  -12.688774|    1.285757|
|          57|  7.9017e+00|   -5.311092|   -5.541506|   -6.091005|   -5.344363|   -5.366015|  -12.680376|    1.285691|
|          58|  7.9013e+00|   -5.301196|   -5.531663|   -6.083679|   -5.334526|   -5.359028|  -12.672906|    1.285613|
|          59|  7.9002e+00|   -5.292480|   -5.523075|   -6.076696|   -5.326213|   -5.353156|  -12.666651|    1.285574|
|          60|  7.8982e+00|   -5.284850|   -5.516158|   -6.069919|   -5.319331|   -5.348126|  -12.661162|    1.285598|
|          61|  7.8965e+00|   -5.278318|   -5.510668|   -6.063685|   -5.313883|   -5.343864|  -12.657031|    1.285673|
|          62|  7.9044e+00|   -5.273146|   -5.506618|   -6.058124|   -5.309789|   -5.340720|  -12.654068|    1.285753|
|          63|  7.9047e+00|   -5.269258|   -5.503304|   -6.053278|   -5.306969|   -5.338725|  -12.652299|    1.285792|
|          64|  7.9039e+00|   -5.266452|   -5.500839|   -6.048829|   -5.305144|   -5.337717|  -12.651049|    1.285764|
|          65|  7.9036e+00|   -5.264348|   -5.498979|   -6.044802|   -5.304072|   -5.337224|  -12.650451|    1.285675|
|          66|  7.9027e+00|   -5.262879|   -5.497822|   -6.041065|   -5.303635|   -5.337141|  -12.650029|    1.285563|
|          67|  7.9019e+00|   -5.262033|   -5.497337|   -6.037499|   -5.303793|   -5.337470|  -12.650108|    1.285471|
|          68|  7.9028e+00|   -5.261803|   -5.497451|   -6.034127|   -5.304499|   -5.338277|  -12.650985|    1.285427|
|          69|  7.9034e+00|   -5.262147|   -5.498007|   -6.031044|   -5.305694|   -5.339562|  -12.651951|    1.285431|
|          70|  7.9041e+00|   -5.262818|   -5.498717|   -6.028232|   -5.307290|   -5.341047|  -12.653396|    1.285457|
|          71|  7.9036e+00|   -5.263757|   -5.499873|   -6.025748|   -5.309241|   -5.342668|  -12.655000|    1.285473|
|          72|  7.9041e+00|   -5.264846|   -5.501099|   -6.023491|   -5.311464|   -5.344289|  -12.656681|    1.285450|
|          73|  7.9104e+00|   -5.266272|   -5.502652|   -6.021300|   -5.313886|   -5.346157|  -12.658195|    1.285383|
|          74|  7.9158e+00|   -5.268002|   -5.504358|   -6.019108|   -5.316447|   -5.348336|  -12.660440|    1.285287|
|          75|  7.9227e+00|   -5.269994|   -5.506348|   -6.016879|   -5.319114|   -5.350816|  -12.662401|    1.285187|
|          76|  7.9222e+00|   -5.272003|   -5.508322|   -6.014597|   -5.321852|   -5.353238|  -12.664270|    1.285107|
|          77|  7.9218e+00|   -5.274015|   -5.510363|   -6.012553|   -5.324730|   -5.355555|  -12.666509|    1.285058|
|          78|  7.9213e+00|   -5.276016|   -5.512502|   -6.010702|   -5.327787|   -5.357765|  -12.668238|    1.285032|
|          79|  7.9208e+00|   -5.277931|   -5.514413|   -6.008842|   -5.330922|   -5.359772|  -12.670066|    1.285013|
|          80|  7.9215e+00|   -5.280007|   -5.516523|   -6.007011|   -5.334014|   -5.361956|  -12.672073|    1.284982|
|          81|  7.9227e+00|   -5.282202|   -5.518685|   -6.005170|   -5.337016|   -5.364342|  -12.674058|    1.284927|
|          82|  7.9277e+00|   -5.284472|   -5.520962|   -6.003118|   -5.339922|   -5.366839|  -12.675873|    1.284849|
|          83|  7.9327e+00|   -5.286767|   -5.523174|   -6.001130|   -5.342873|   -5.369346|  -12.677778|    1.284758|
|          84|  7.9380e+00|   -5.288981|   -5.525181|   -5.999271|   -5.345922|   -5.371726|  -12.679295|    1.284668|
|          85|  7.9371e+00|   -5.290943|   -5.527029|   -5.997354|   -5.348989|   -5.373742|  -12.680246|    1.284589|
|          86|  7.9359e+00|   -5.292617|   -5.528633|   -5.995449|   -5.351983|   -5.375376|  -12.681711|    1.284526|
|          87|  7.9347e+00|   -5.294292|   -5.530631|   -5.993639|   -5.354790|   -5.377024|  -12.682743|    1.284472|
|          88|  7.9398e+00|   -5.296005|   -5.532656|   -5.991753|   -5.357408|   -5.378757|  -12.683946|    1.284417|
|          89|  7.9437e+00|   -5.298016|   -5.534588|   -5.989886|   -5.360070|   -5.380929|  -12.685565|    1.284354|
|          90|  7.9475e+00|   -5.300184|   -5.536421|   -5.987982|   -5.362796|   -5.383391|  -12.686342|    1.284275|
|          91|  7.9523e+00|   -5.301929|   -5.537610|   -5.985906|   -5.365430|   -5.385382|  -12.686735|    1.284183|
|          92|  7.9559e+00|   -5.303184|   -5.538697|   -5.983791|   -5.367904|   -5.386753|  -12.686924|    1.284082|
|          93|  7.9590e+00|   -5.303976|   -5.540037|   -5.981769|   -5.370144|   -5.387532|  -12.686565|    1.283980|
|          94|  7.9622e+00|   -5.304562|   -5.541444|   -5.979814|   -5.372184|   -5.388029|  -12.686762|    1.283883|
|          95|  7.9653e+00|   -5.305644|   -5.543044|   -5.977975|   -5.374270|   -5.389196|  -12.687287|    1.283790|
|          96|  7.9640e+00|   -5.307145|   -5.544311|   -5.976098|   -5.376415|   -5.391071|  -12.687495|    1.283700|
|          97|  7.9634e+00|   -5.308487|   -5.544958|   -5.973919|   -5.378424|   -5.392945|  -12.687306|    1.283606|
|          98|  7.9669e+00|   -5.309263|   -5.545385|   -5.971559|   -5.380131|   -5.394197|  -12.686338|    1.283504|
|          99|  7.9706e+00|   -5.309230|   -5.545805|   -5.969235|   -5.381474|   -5.394429|  -12.684654|    1.283390|
|         100|  7.9742e+00|   -5.308686|   -5.546458|   -5.966978|   -5.382608|   -5.393947|  -12.683316|    1.283266|
|         101|  7.9780e+00|   -5.308372|   -5.547334|   -5.964886|   -5.383827|   -5.393746|  -12.682293|    1.283134|
|         102|  7.9814e+00|   -5.308509|   -5.547907|   -5.962861|   -5.385114|   -5.394251|  -12.681320|    1.283000|
|         103|  7.9808e+00|   -5.308843|   -5.547955|   -5.960602|   -5.386253|   -5.395261|  -12.680248|    1.282864|
|         104|  7.9469e+00|   -5.308868|   -5.547700|   -5.958064|   -5.387030|   -5.396112|  -12.685231|    1.282867|
|         105|  7.9134e+00|   -5.308220|   -5.547453|   -5.957322|   -5.386740|   -5.395415|  -12.684260|    1.282871|
|         106|  7.8842e+00|   -5.307450|   -5.547159|   -5.956432|   -5.386399|   -5.394586|  -12.683110|    1.282875|
|         107|  7.8560e+00|   -5.306541|   -5.546813|   -5.955369|   -5.386002|   -5.393608|  -12.681762|    1.282879|
|         108|  7.8280e+00|   -5.305478|   -5.546404|   -5.954109|   -5.385546|   -5.392466|  -12.680202|    1.282885|
|         109|  7.8009e+00|   -5.304248|   -5.545922|   -5.952624|   -5.385027|   -5.391151|  -12.678429|    1.282890|
|         110|  7.7741e+00|   -5.302850|   -5.545350|   -5.950898|   -5.384450|   -5.389670|  -12.676461|    1.282896|
|         111|  7.7517e+00|   -5.301304|   -5.544667|   -5.948926|   -5.383824|   -5.388058|  -12.674348|    1.282903|
|         112|  7.7295e+00|   -5.299661|   -5.543840|   -5.946736|   -5.383171|   -5.386401|  -12.672206|    1.282909|
|         113|  7.7077e+00|   -5.298042|   -5.542832|   -5.944411|   -5.382540|   -5.384872|  -12.670205|    1.282914|
|         114|  7.6899e+00|   -5.296654|   -5.541592|   -5.942097|   -5.382016|   -5.383762|  -12.668568|    1.282916|
|         115|  7.6722e+00|   -5.295782|   -5.540084|   -5.939985|   -5.381730|   -5.383419|  -12.667479|    1.282914|
|         116|  7.6586e+00|   -5.295708|   -5.538304|   -5.938201|   -5.381848|   -5.384114|  -12.666819|    1.282905|
|         117|  7.6451e+00|   -5.296484|   -5.536321|   -5.936651|   -5.382469|   -5.385731|  -12.665823|    1.282883|
|         118|  7.6352e+00|   -5.297544|   -5.534299|   -5.934833|   -5.383392|   -5.387350|  -12.663131|    1.282842|
|         119|  7.6279e+00|   -5.297579|   -5.532357|   -5.931758|   -5.383957|   -5.387232|  -12.657424|    1.282776|
|         120|  7.6225e+00|   -5.294674|   -5.530564|   -5.926454|   -5.383089|   -5.383227|  -12.650110|    1.282676|
|         121|  7.6193e+00|   -5.289024|   -5.529177|   -5.920231|   -5.380694|   -5.375994|  -12.646793|    1.282535|
|         122|  7.6176e+00|   -5.284446|   -5.529056|   -5.917209|   -5.378605|   -5.370768|  -12.647733|    1.282348|
|         123|  7.6191e+00|   -5.282893|   -5.530350|   -5.918301|   -5.377961|   -5.369967|  -12.648262|    1.282132|
|         124|  7.6214e+00|   -5.282697|   -5.532167|   -5.920405|   -5.377930|   -5.371098|  -12.647799|    1.281931|
|         125|  7.6233e+00|   -5.282573|   -5.533332|   -5.921397|   -5.377908|   -5.372259|  -12.647351|    1.281747|
|         126|  7.6246e+00|   -5.283031|   -5.533421|   -5.921698|   -5.378373|   -5.374059|  -12.646402|    1.281581|
|         127|  7.6261e+00|   -5.283661|   -5.532146|   -5.921098|   -5.379002|   -5.375990|  -12.644449|    1.281440|
|         128|  7.6275e+00|   -5.283863|   -5.530228|   -5.919807|   -5.379085|   -5.377489|  -12.641408|    1.281340|
|         129|  7.6296e+00|   -5.282821|   -5.528488|   -5.917843|   -5.378092|   -5.377658|  -12.637131|    1.281306|
|         130|  7.6280e+00|   -5.279944|   -5.527004|   -5.914801|   -5.375980|   -5.375580|  -12.631582|    1.281374|
|         131|  7.6271e+00|   -5.275646|   -5.525555|   -5.910941|   -5.373247|   -5.371559|  -12.625917|    1.281586|
|         132|  7.6255e+00|   -5.271363|   -5.524045|   -5.907321|   -5.370723|   -5.367519|  -12.621605|    1.281982|
|         133|  7.6242e+00|   -5.268253|   -5.522429|   -5.904586|   -5.368888|   -5.365184|  -12.617877|    1.282592|
|         134|  7.6224e+00|   -5.265911|   -5.520430|   -5.902208|   -5.367327|   -5.364019|  -12.613582|    1.283420|
|         135|  7.6203e+00|   -5.263453|   -5.517991|   -5.899634|   -5.365375|   -5.362831|  -12.608838|    1.284439|
|         136|  7.6194e+00|   -5.260384|   -5.515219|   -5.896715|   -5.362761|   -5.360974|  -12.603758|    1.285585|
|         137|  7.6178e+00|   -5.256430|   -5.512160|   -5.893357|   -5.359447|   -5.358031|  -12.597999|    1.286762|
|         138|  7.6168e+00|   -5.251506|   -5.508961|   -5.889413|   -5.355542|   -5.353712|  -12.591970|    1.287855|
|         139|  7.6156e+00|   -5.246248|   -5.505859|   -5.885269|   -5.351571|   -5.348785|  -12.586752|    1.288747|
|         140|  7.6143e+00|   -5.241506|   -5.502798|   -5.881494|   -5.348009|   -5.344517|  -12.582384|    1.289335|
|         141|  7.6131e+00|   -5.237451|   -5.499432|   -5.878400|   -5.344718|   -5.341263|  -12.577986|    1.289551|
|         142|  7.6116e+00|   -5.233530|   -5.495536|   -5.875479|   -5.341217|   -5.338314|  -12.573118|    1.289374|
|         143|  7.6103e+00|   -5.229269|   -5.491292|   -5.872244|   -5.337266|   -5.334996|  -12.567803|    1.288828|
|         144|  7.6093e+00|   -5.224444|   -5.486882|   -5.868548|   -5.332867|   -5.330971|  -12.562083|    1.287983|
|         145|  7.6076e+00|   -5.219007|   -5.482440|   -5.864382|   -5.328114|   -5.326075|  -12.556035|    1.286941|
|         146|  7.6065e+00|   -5.213192|   -5.478010|   -5.859899|   -5.323250|   -5.320533|  -12.550189|    1.285816|
|         147|  7.6048e+00|   -5.207477|   -5.473472|   -5.855439|   -5.318577|   -5.315026|  -12.544788|    1.284720|
|         148|  7.6037e+00|   -5.202155|   -5.468611|   -5.851317|   -5.314156|   -5.310029|  -12.539516|    1.283749|
|         149|  7.6024e+00|   -5.197104|   -5.463247|   -5.847540|   -5.309735|   -5.305449|  -12.534159|    1.282967|
|         150|  7.6012e+00|   -5.192066|   -5.457447|   -5.843825|   -5.305102|   -5.300963|  -12.528601|    1.282403|
+-----------------------------------------------------------------------+
|        File Writing Summary       |              Filename             |
+-----------------------------------------------------------------------+
|SU2 binary restart                 |restart_flow.dat                   |
|Paraview                           |flow.vtu                           |
|Paraview surface                   |surface_flow.vtu                   |
+-----------------------------------------------------------------------+
+--------------------------------------------------------------------------------------------------------------------+
|  Inner_Iter|   Time(sec)|    rms[Rho]|   rms[RhoU]|   rms[RhoV]|   rms[RhoW]|   rms[RhoE]|     rms[nu]|          CD|
+--------------------------------------------------------------------------------------------------------------------+
|         151|  7.7470e+00|   -5.186808|   -5.451384|   -5.839890|   -5.300195|   -5.296246|  -12.522838|    1.282053|
|         152|  7.7494e+00|   -5.181157|   -5.445214|   -5.835600|   -5.295028|   -5.291031|  -12.516695|    1.281886|
|         153|  7.7487e+00|   -5.174985|   -5.438998|   -5.830887|   -5.289598|   -5.285022|  -12.510260|    1.281850|
|         154|  7.7444e+00|   -5.168488|   -5.432777|   -5.825906|   -5.284055|   -5.278451|  -12.504110|    1.281886|
|         155|  7.7396e+00|   -5.162082|   -5.426551|   -5.820955|   -5.278630|   -5.271952|  -12.498343|    1.281935|
|         156|  7.7349e+00|   -5.155937|   -5.420158|   -5.816205|   -5.273355|   -5.265801|  -12.492650|    1.281947|
|         157|  7.7306e+00|   -5.150012|   -5.413416|   -5.811627|   -5.268132|   -5.259961|  -12.486871|    1.281884|
|         158|  7.7264e+00|   -5.144221|   -5.406335|   -5.807090|   -5.262890|   -5.254337|  -12.480982|    1.281725|
|         159|  7.7214e+00|   -5.138458|   -5.399001|   -5.802506|   -5.257605|   -5.248810|  -12.474953|    1.281460|
|         160|  7.7170e+00|   -5.132529|   -5.391556|   -5.797772|   -5.252223|   -5.243116|  -12.468543|    1.281090|
|         161|  7.7123e+00|   -5.126118|   -5.384031|   -5.792735|   -5.246597|   -5.236728|  -12.461621|    1.280623|
|         162|  7.7081e+00|   -5.119236|   -5.376459|   -5.787376|   -5.240737|   -5.229603|  -12.454663|    1.280072|
|         163|  7.7039e+00|   -5.112220|   -5.368949|   -5.781944|   -5.234801|   -5.222276|  -12.448084|    1.279451|
|         164|  7.6999e+00|   -5.105332|   -5.361428|   -5.776707|   -5.228896|   -5.215171|  -12.441727|    1.278771|
|         165|  7.6963e+00|   -5.098585|   -5.353746|   -5.771595|   -5.223013|   -5.208289|  -12.435244|    1.278044|
|         166|  7.6929e+00|   -5.091902|   -5.345780|   -5.766386|   -5.217144|   -5.201496|  -12.428690|    1.277279|
|         167|  7.6888e+00|   -5.085302|   -5.337579|   -5.761101|   -5.211306|   -5.194838|  -12.422228|    1.276483|
|         168|  7.6852e+00|   -5.078781|   -5.329273|   -5.755863|   -5.205502|   -5.188353|  -12.415746|    1.275664|
|         169|  7.6810e+00|   -5.072141|   -5.320947|   -5.750567|   -5.199634|   -5.181733|  -12.408975|    1.274825|
|         170|  7.6769e+00|   -5.065137|   -5.312551|   -5.744921|   -5.193585|   -5.174557|  -12.401806|    1.273970|
|         171|  7.6729e+00|   -5.057804|   -5.304117|   -5.738860|   -5.187376|   -5.166835|  -12.394655|    1.273103|
|         172|  7.6690e+00|   -5.050467|   -5.295786|   -5.732799|   -5.181124|   -5.159093|  -12.387885|    1.272225|
|         173|  7.6651e+00|   -5.043300|   -5.287542|   -5.727067|   -5.174842|   -5.151634|  -12.381276|    1.271338|
|         174|  7.6606e+00|   -5.036176|   -5.279215|   -5.721364|   -5.168453|   -5.144235|  -12.374427|    1.270443|
|         175|  7.6569e+00|   -5.028946|   -5.270675|   -5.715341|   -5.161892|   -5.136625|  -12.367376|    1.269539|
|         176|  7.6530e+00|   -5.021629|   -5.261919|   -5.709035|   -5.155143|   -5.128827|  -12.360411|    1.268628|
|         177|  7.6495e+00|   -5.014317|   -5.253054|   -5.702690|   -5.148220|   -5.120999|  -12.353591|    1.267709|
|         178|  7.6458e+00|   -5.006969|   -5.244135|   -5.696316|   -5.141062|   -5.113079|  -12.346736|    1.266781|
|         179|  7.6419e+00|   -4.999401|   -5.235086|   -5.689578|   -5.133554|   -5.104752|  -12.339634|    1.265845|
|         180|  7.6384e+00|   -4.991516|   -5.225820|   -5.682183|   -5.125623|   -5.095804|  -12.332323|    1.264899|
|         181|  7.6350e+00|   -4.983438|   -5.216354|   -5.674250|   -5.117264|   -5.086412|  -12.325160|    1.263942|
|         182|  7.6317e+00|   -4.975350|   -5.206773|   -5.666047|   -5.108476|   -5.076872|  -12.318207|    1.262973|
|         183|  7.6284e+00|   -4.967252|   -5.197095|   -5.657436|   -5.099204|   -5.067178|  -12.311254|    1.261992|
|         184|  7.6251e+00|   -4.958991|   -5.187198|   -5.648076|   -5.089356|   -5.057079|  -12.304093|    1.260997|
|         185|  7.6080e+00|   -4.950447|   -5.176996|   -5.637778|   -5.078844|   -5.046388|  -12.329045|    1.260967|
|         186|  7.5912e+00|   -4.950040|   -5.176598|   -5.637448|   -5.078425|   -5.046002|  -12.328179|    1.260931|
|         187|  7.5743e+00|   -4.949558|   -5.176122|   -5.637051|   -5.077929|   -5.045546|  -12.327154|    1.260887|
|         188|  7.5598e+00|   -4.948990|   -5.175554|   -5.636573|   -5.077342|   -5.045007|  -12.325944|    1.260835|
|         189|  7.5455e+00|   -4.948323|   -5.174875|   -5.635996|   -5.076648|   -5.044374|  -12.324520|    1.260772|
|         190|  7.5314e+00|   -4.947543|   -5.174064|   -5.635300|   -5.075831|   -5.043633|  -12.322850|    1.260696|
|         191|  7.5175e+00|   -4.946635|   -5.173098|   -5.634460|   -5.074872|   -5.042769|  -12.320901|    1.260604|
|         192|  7.5034e+00|   -4.945585|   -5.171948|   -5.633445|   -5.073751|   -5.041767|  -12.318640|    1.260493|
|         193|  7.4897e+00|   -4.944380|   -5.170580|   -5.632218|   -5.072443|   -5.040612|  -12.316034|    1.260360|
|         194|  7.4784e+00|   -4.943005|   -5.168953|   -5.630734|   -5.070923|   -5.039286|  -12.313049|    1.260198|
|         195|  7.4671e+00|   -4.941448|   -5.167022|   -5.628936|   -5.069158|   -5.037766|  -12.309652|    1.260002|
|         196|  7.4564e+00|   -4.939694|   -5.164729|   -5.626749|   -5.067108|   -5.036022|  -12.305813|    1.259763|
|         197|  7.4474e+00|   -4.937718|   -5.162002|   -5.624074|   -5.064717|   -5.033998|  -12.301486|    1.259472|
|         198|  7.4385e+00|   -4.935474|   -5.158754|   -5.620775|   -5.061895|   -5.031603|  -12.296613|    1.259117|
|         199|  7.4300e+00|   -4.932875|   -5.154878|   -5.616667|   -5.058500|   -5.028677|  -12.291101|    1.258681|
|         200|  7.4237e+00|   -4.929750|   -5.150218|   -5.611475|   -5.054292|   -5.024934|  -12.284799|    1.258146|
|         201|  7.4178e+00|   -4.925804|   -5.144574|   -5.604833|   -5.048880|   -5.019921|  -12.277495|    1.257490|
|         202|  7.4135e+00|   -4.920583|   -5.137649|   -5.596269|   -5.041686|   -5.012976|  -12.268927|    1.256687|
|         203|  7.4095e+00|   -4.913481|   -5.129066|   -5.585228|   -5.031893|   -5.003259|  -12.258880|    1.255708|
|         204|  7.4074e+00|   -4.903802|   -5.118340|   -5.571104|   -5.018503|   -4.989865|  -12.249148|    1.254594|
|         205|  7.4056e+00|   -4.891615|   -5.105771|   -5.554260|   -5.001656|   -4.973173|  -12.242134|    1.253479|
|         206|  7.4034e+00|   -4.878475|   -5.092932|   -5.536602|   -4.983651|   -4.955703|  -12.234811|    1.252361|
|         207|  7.4014e+00|   -4.864975|   -5.080035|   -5.518031|   -4.965187|   -4.938232|  -12.227333|    1.251235|
|         208|  7.3999e+00|   -4.851452|   -5.067149|   -5.498517|   -4.946732|   -4.921175|  -12.219622|    1.250098|
|         209|  7.3982e+00|   -4.838027|   -5.054246|   -5.478169|   -4.928547|   -4.904684|  -12.211525|    1.248948|
|         210|  7.3965e+00|   -4.824665|   -5.041279|   -5.457187|   -4.910727|   -4.888764|  -12.202857|    1.247783|
|         211|  7.3947e+00|   -4.811207|   -5.028202|   -5.435766|   -4.893265|   -4.873319|  -12.193550|    1.246606|
|         212|  7.3928e+00|   -4.797448|   -5.015042|   -5.414080|   -4.876098|   -4.858237|  -12.183547|    1.245415|
|         213|  7.3908e+00|   -4.783197|   -5.001854|   -5.392316|   -4.859160|   -4.843427|  -12.172823|    1.244214|
|         214|  7.3892e+00|   -4.768301|   -4.988676|   -5.370675|   -4.842402|   -4.828814|  -12.161399|    1.243003|
|         215|  7.3875e+00|   -4.752666|   -4.975521|   -5.349370|   -4.825801|   -4.814359|  -12.149345|    1.241783|
|         216|  7.3859e+00|   -4.736277|   -4.962423|   -5.328578|   -4.809376|   -4.800072|  -12.136737|    1.240555|
|         217|  7.3840e+00|   -4.719189|   -4.949428|   -5.308414|   -4.793194|   -4.785995|  -12.123658|    1.239317|
|         218|  7.3823e+00|   -4.701513|   -4.936579|   -5.288956|   -4.777351|   -4.772196|  -12.110172|    1.238067|
|         219|  7.3805e+00|   -4.683405|   -4.923933|   -5.270290|   -4.761953|   -4.758767|  -12.096327|    1.236804|
|         220|  7.3787e+00|   -4.665051|   -4.911559|   -5.252504|   -4.747101|   -4.745820|  -12.082182|    1.235526|
|         221|  7.3774e+00|   -4.646623|   -4.899501|   -5.235661|   -4.732869|   -4.733452|  -12.067811|    1.234230|
|         222|  7.3759e+00|   -4.628272|   -4.887803|   -5.219809|   -4.719306|   -4.721731|  -12.053260|    1.232914|
|         223|  7.3625e+00|   -4.610120|   -4.876514|   -5.204958|   -4.706434|   -4.710694|  -12.095856|    1.232874|
|         224|  7.3499e+00|   -4.609450|   -4.876205|   -5.204725|   -4.706029|   -4.710378|  -12.094605|    1.232826|
|         225|  7.3386e+00|   -4.608654|   -4.875837|   -5.204441|   -4.705549|   -4.710006|  -12.093113|    1.232768|
|         226|  7.3274e+00|   -4.607710|   -4.875398|   -5.204096|   -4.704983|   -4.709569|  -12.091339|    1.232698|
|         227|  7.3167e+00|   -4.606593|   -4.874876|   -5.203674|   -4.704315|   -4.709058|  -12.089231|    1.232614|
|         228|  7.3061e+00|   -4.605273|   -4.874255|   -5.203156|   -4.703532|   -4.708464|  -12.086733|    1.232513|
|         229|  7.2955e+00|   -4.603720|   -4.873518|   -5.202520|   -4.702616|   -4.707775|  -12.083779|    1.232391|
|         230|  7.2848e+00|   -4.601898|   -4.872644|   -5.201734|   -4.701549|   -4.706984|  -12.080296|    1.232243|
|         231|  7.2760e+00|   -4.599767|   -4.871608|   -5.200758|   -4.700314|   -4.706080|  -12.076202|    1.232065|
|         232|  7.2675e+00|   -4.597285|   -4.870382|   -5.199543|   -4.698891|   -4.705057|  -12.071405|    1.231850|
|         233|  7.2589e+00|   -4.594403|   -4.868931|   -5.198022|   -4.697258|   -4.703905|  -12.065802|    1.231589|
|         234|  7.2505e+00|   -4.591067|   -4.867212|   -5.196112|   -4.695388|   -4.702613|  -12.059276|    1.231272|
|         235|  7.2441e+00|   -4.587206|   -4.865167|   -5.193703|   -4.693246|   -4.701160|  -12.051692|    1.230886|
|         236|  7.2375e+00|   -4.582730|   -4.862720|   -5.190663|   -4.690774|   -4.699504|  -12.042880|    1.230415|
|         237|  7.2311e+00|   -4.577505|   -4.859762|   -5.186829|   -4.687872|   -4.697559|  -12.032638|    1.229839|
|         238|  7.2265e+00|   -4.571332|   -4.856137|   -5.182019|   -4.684379|   -4.695168|  -12.020719|    1.229134|
|         239|  7.2217e+00|   -4.563915|   -4.851629|   -5.176039|   -4.680030|   -4.692058|  -12.006832|    1.228270|
|         240|  7.2192e+00|   -4.554842|   -4.845954|   -5.168714|   -4.674444|   -4.687825|  -11.990688|    1.227211|
|         241|  7.2183e+00|   -4.543586|   -4.838771|   -5.159927|   -4.667134|   -4.681925|  -11.972065|    1.225914|
|         242|  7.2174e+00|   -4.529571|   -4.829737|   -5.149649|   -4.657585|   -4.673752|  -11.954745|    1.224425|
|         243|  7.2165e+00|   -4.513396|   -4.819412|   -5.138896|   -4.646248|   -4.663606|  -11.943732|    1.222916|
|         244|  7.2156e+00|   -4.497314|   -4.809478|   -5.129553|   -4.634950|   -4.653225|  -11.932877|    1.221376|
|         245|  7.2149e+00|   -4.481863|   -4.800167|   -5.121481|   -4.624239|   -4.643232|  -11.922383|    1.219795|
|         246|  7.2137e+00|   -4.467423|   -4.791605|   -5.114496|   -4.614488|   -4.634073|  -11.912333|    1.218162|
|         247|  7.2127e+00|   -4.454208|   -4.783818|   -5.108395|   -4.605877|   -4.625988|  -11.902726|    1.216468|
|         248|  7.2117e+00|   -4.442291|   -4.776749|   -5.102970|   -4.598423|   -4.619025|  -11.893539|    1.214707|
|         249|  7.2111e+00|   -4.431639|   -4.770299|   -5.098028|   -4.592021|   -4.613092|  -11.884751|    1.212875|
|         250|  7.2102e+00|   -4.422155|   -4.764353|   -5.093403|   -4.586485|   -4.608002|  -11.876356|    1.210973|
|         251|  7.2089e+00|   -4.413705|   -4.758801|   -5.088959|   -4.581587|   -4.603504|  -11.868380|    1.209004|
|         252|  7.2082e+00|   -4.406143|   -4.753524|   -5.084578|   -4.577085|   -4.599313|  -11.860873|    1.206973|
|         253|  7.2072e+00|   -4.399347|   -4.748427|   -5.080171|   -4.572765|   -4.595187|  -11.853907|    1.204887|
|         254|  7.2061e+00|   -4.393234|   -4.743432|   -5.075677|   -4.568477|   -4.590954|  -11.847562|    1.202751|
|         255|  7.2056e+00|   -4.387754|   -4.738476|   -5.071057|   -4.564120|   -4.586514|  -11.841914|    1.200572|
|         256|  7.2050e+00|   -4.382889|   -4.733522|   -5.066293|   -4.559662|   -4.581847|  -11.837003|    1.198357|
|         257|  7.2046e+00|   -4.378647|   -4.728560|   -5.061381|   -4.555114|   -4.576989|  -11.832839|    1.196110|
|         258|  7.2040e+00|   -4.375039|   -4.723608|   -5.056333|   -4.550514|   -4.572004|  -11.829409|    1.193835|
|         259|  7.2035e+00|   -4.372056|   -4.718692|   -5.051154|   -4.545907|   -4.566949|  -11.826685|    1.191535|
|         260|  7.2027e+00|   -4.369674|   -4.713849|   -5.045867|   -4.541341|   -4.561887|  -11.824611|    1.189215|
|         261|  7.2017e+00|   -4.367859|   -4.709105|   -5.040502|   -4.536859|   -4.556860|  -11.823126|    1.186879|
|         262|  7.2008e+00|   -4.366557|   -4.704485|   -5.035103|   -4.532480|   -4.551892|  -11.822164|    1.184530|
|         263|  7.2002e+00|   -4.365714|   -4.700025|   -5.029736|   -4.528225|   -4.547020|  -11.821688|    1.182174|
|         264|  7.1993e+00|   -4.365259|   -4.695744|   -5.024465|   -4.524096|   -4.542257|  -11.821644|    1.179819|
|         265|  7.1984e+00|   -4.365137|   -4.691669|   -5.019361|   -4.520102|   -4.537635|  -11.821993|    1.177472|
|         266|  7.1974e+00|   -4.365308|   -4.687831|   -5.014480|   -4.516253|   -4.533183|  -11.822698|    1.175141|
|         267|  7.1965e+00|   -4.365698|   -4.684237|   -5.009891|   -4.512559|   -4.528925|  -11.823715|    1.172835|
|         268|  7.1958e+00|   -4.366242|   -4.680888|   -5.005631|   -4.509021|   -4.524861|  -11.824988|    1.170562|
|         269|  7.1952e+00|   -4.366882|   -4.677800|   -5.001730|   -4.505643|   -4.521008|  -11.826471|    1.168329|
|         270|  7.1945e+00|   -4.367620|   -4.675005|   -4.998242|   -4.502455|   -4.517400|  -11.828131|    1.166141|
|         271|  7.1934e+00|   -4.368389|   -4.672491|   -4.995190|   -4.499460|   -4.514044|  -11.829916|    1.164003|
|         272|  7.1926e+00|   -4.369153|   -4.670260|   -4.992599|   -4.496672|   -4.510949|  -11.831782|    1.161915|
|         273|  7.1927e+00|   -4.369878|   -4.668310|   -4.990475|   -4.494096|   -4.508123|  -11.833732|    1.159876|
|         274|  7.1924e+00|   -4.370559|   -4.666640|   -4.988830|   -4.491751|   -4.505574|  -11.835731|    1.157882|
|         275|  7.1917e+00|   -4.371180|   -4.665239|   -4.987666|   -4.489648|   -4.503311|  -11.837732|    1.155927|
|         276|  7.1910e+00|   -4.371756|   -4.664111|   -4.986988|   -4.487804|   -4.501353|  -11.839722|    1.154002|
|         277|  7.1905e+00|   -4.372282|   -4.663277|   -4.986769|   -4.486224|   -4.499702|  -11.841667|    1.152096|
|         278|  7.1901e+00|   -4.372760|   -4.662746|   -4.986994|   -4.484903|   -4.498354|  -11.843514|    1.150197|
|         279|  7.1895e+00|   -4.373178|   -4.662512|   -4.987646|   -4.483821|   -4.497284|  -11.845267|    1.148293|
|         280|  7.1888e+00|   -4.373609|   -4.662573|   -4.988719|   -4.483021|   -4.496510|  -11.846963|    1.146373|
|         281|  7.1880e+00|   -4.374062|   -4.662924|   -4.990207|   -4.482504|   -4.496024|  -11.848626|    1.144425|
|         282|  7.1875e+00|   -4.374528|   -4.663528|   -4.992067|   -4.482261|   -4.495807|  -11.850248|    1.142439|
|         283|  7.1868e+00|   -4.375050|   -4.664385|   -4.994276|   -4.482307|   -4.495879|  -11.851822|    1.140409|
|         284|  7.1862e+00|   -4.375672|   -4.665495|   -4.996817|   -4.482654|   -4.496250|  -11.853309|    1.138330|
|         285|  7.1856e+00|   -4.376444|   -4.666891|   -4.999685|   -4.483322|   -4.496951|  -11.854686|    1.136200|
|         286|  7.1851e+00|   -4.377398|   -4.668603|   -5.002839|   -4.484314|   -4.497982|  -11.855930|    1.134019|
|         287|  7.1847e+00|   -4.378504|   -4.670602|   -5.006245|   -4.485585|   -4.499283|  -11.857035|    1.131789|
|         288|  7.1839e+00|   -4.379773|   -4.672887|   -5.009875|   -4.487120|   -4.500833|  -11.858009|    1.129513|
|         289|  7.1834e+00|   -4.381202|   -4.675432|   -5.013684|   -4.488895|   -4.502593|  -11.858873|    1.127198|
|         290|  7.1828e+00|   -4.382801|   -4.678204|   -5.017633|   -4.490895|   -4.504542|  -11.859649|    1.124850|
|         291|  7.1824e+00|   -4.384586|   -4.681179|   -5.021685|   -4.493111|   -4.506671|  -11.860346|    1.122474|
|         292|  7.1819e+00|   -4.386580|   -4.684331|   -5.025812|   -4.495540|   -4.508983|  -11.860948|    1.120077|
|         293|  7.1810e+00|   -4.388790|   -4.687647|   -5.029986|   -4.498185|   -4.511485|  -11.861427|    1.117665|
|         294|  7.1804e+00|   -4.391229|   -4.691148|   -5.034203|   -4.501050|   -4.514187|  -11.861767|    1.115242|
|         295|  7.1799e+00|   -4.393908|   -4.694827|   -5.038449|   -4.504106|   -4.517071|  -11.861970|    1.112812|
|         296|  7.1792e+00|   -4.396832|   -4.698681|   -5.042741|   -4.507350|   -4.520131|  -11.862020|    1.110377|
|         297|  7.1786e+00|   -4.399968|   -4.702689|   -5.047069|   -4.510743|   -4.523324|  -11.861906|    1.107938|
|         298|  7.1781e+00|   -4.403316|   -4.706849|   -5.051425|   -4.514273|   -4.526637|  -11.861650|    1.105495|
|         299|  7.1776e+00|   -4.406894|   -4.711165|   -5.055824|   -4.517958|   -4.530080|  -11.861255|    1.103047|
|         300|  7.1771e+00|   -4.410720|   -4.715685|   -5.060274|   -4.521795|   -4.533663|  -11.860751|    1.100591|
+-----------------------------------------------------------------------+
|        File Writing Summary       |              Filename             |
+-----------------------------------------------------------------------+
|SU2 binary restart                 |restart_flow.dat                   |
|Paraview                           |flow.vtu                           |
|Paraview surface                   |surface_flow.vtu                   |
+-----------------------------------------------------------------------+
+--------------------------------------------------------------------------------------------------------------------+
|  Inner_Iter|   Time(sec)|    rms[Rho]|   rms[RhoU]|   rms[RhoV]|   rms[RhoW]|   rms[RhoE]|     rms[nu]|          CD|
+--------------------------------------------------------------------------------------------------------------------+
|         301|  7.2522e+00|   -4.414740|   -4.720327|   -5.064779|   -4.525748|   -4.537341|  -11.860110|    1.098124|
|         302|  7.2561e+00|   -4.418922|   -4.725060|   -5.069320|   -4.529787|   -4.541088|  -11.859310|    1.095645|
|         303|  7.2594e+00|   -4.423247|   -4.729881|   -5.073883|   -4.533895|   -4.544893|  -11.858332|    1.093150|
|         304|  7.2591e+00|   -4.427699|   -4.734787|   -5.078453|   -4.538051|   -4.548743|  -11.857170|    1.090638|
|         305|  7.2584e+00|   -4.432238|   -4.739778|   -5.083019|   -4.542220|   -4.552609|  -11.855795|    1.088106|
|         306|  7.2580e+00|   -4.436890|   -4.744846|   -5.087604|   -4.546426|   -4.556514|  -11.854209|    1.085554|
|         307|  7.2577e+00|   -4.441640|   -4.749956|   -5.092192|   -4.550655|   -4.560445|  -11.852428|    1.082982|
|         308|  7.2574e+00|   -4.446477|   -4.755087|   -5.096762|   -4.554898|   -4.564397|  -11.850454|    1.080391|
|         309|  7.2565e+00|   -4.451389|   -4.760227|   -5.101299|   -4.559150|   -4.568375|  -11.848285|    1.077780|
|         310|  7.2557e+00|   -4.456358|   -4.765343|   -5.105799|   -4.563392|   -4.572367|  -11.845878|    1.075153|
|         311|  7.2548e+00|   -4.461355|   -4.770404|   -5.110246|   -4.567601|   -4.576358|  -11.843239|    1.072510|
|         312|  7.2539e+00|   -4.466362|   -4.775388|   -5.114653|   -4.571764|   -4.580342|  -11.840386|    1.069854|
|         313|  7.2534e+00|   -4.471360|   -4.780274|   -5.119021|   -4.575864|   -4.584313|  -11.837317|    1.067186|
|         314|  7.2528e+00|   -4.476301|   -4.785017|   -5.123346|   -4.579865|   -4.588229|  -11.834018|    1.064509|
|         315|  7.2519e+00|   -4.481147|   -4.789592|   -5.127616|   -4.583736|   -4.592066|  -11.830481|    1.061823|
|         316|  7.2510e+00|   -4.485874|   -4.793975|   -5.131823|   -4.587459|   -4.595818|  -11.826692|    1.059132|
|         317|  7.2504e+00|   -4.490460|   -4.798145|   -5.135968|   -4.591014|   -4.599475|  -11.822667|    1.056435|
|         318|  7.2500e+00|   -4.494838|   -4.802018|   -5.139979|   -4.594349|   -4.602981|  -11.818413|    1.053735|
|         319|  7.2494e+00|   -4.499044|   -4.805660|   -5.143880|   -4.597486|   -4.606376|  -11.813917|    1.051033|
|         320|  7.2485e+00|   -4.503058|   -4.809041|   -5.147674|   -4.600408|   -4.609658|  -11.809162|    1.048330|
|         321|  7.2478e+00|   -4.506868|   -4.812143|   -5.151323|   -4.603106|   -4.612822|  -11.804147|    1.045629|
|         322|  7.2473e+00|   -4.510459|   -4.814951|   -5.154798|   -4.605565|   -4.615859|  -11.798876|    1.042929|
|         323|  7.2466e+00|   -4.513825|   -4.817474|   -5.158059|   -4.607786|   -4.618773|  -11.793355|    1.040233|
|         324|  7.2463e+00|   -4.516967|   -4.819716|   -5.161081|   -4.609757|   -4.621554|  -11.787572|    1.037541|
|         325|  7.2455e+00|   -4.519872|   -4.821682|   -5.163834|   -4.611466|   -4.624187|  -11.781541|    1.034856|
|         326|  7.2446e+00|   -4.522541|   -4.823386|   -5.166301|   -4.612920|   -4.626674|  -11.775248|    1.032178|
|         327|  7.2438e+00|   -4.524962|   -4.824839|   -5.168458|   -4.614118|   -4.629003|  -11.768694|    1.029507|
|         328|  7.2431e+00|   -4.527139|   -4.826066|   -5.170281|   -4.615068|   -4.631179|  -11.761865|    1.026845|
|         329|  7.2424e+00|   -4.529074|   -4.827069|   -5.171742|   -4.615777|   -4.633201|  -11.754764|    1.024193|
|         330|  7.2417e+00|   -4.530768|   -4.827856|   -5.172834|   -4.616253|   -4.635070|  -11.747349|    1.021550|
|         331|  7.2411e+00|   -4.532239|   -4.828425|   -5.173549|   -4.616503|   -4.636792|  -11.739643|    1.018919|
|         332|  7.2405e+00|   -4.533490|   -4.828803|   -5.173887|   -4.616529|   -4.638370|  -11.731672|    1.016299|
|         333|  7.2399e+00|   -4.534523|   -4.828958|   -5.173845|   -4.616329|   -4.639793|  -11.723432|    1.013692|
|         334|  7.2393e+00|   -4.535322|   -4.828829|   -5.173422|   -4.615879|   -4.641035|  -11.714965|    1.011098|
|         335|  7.2386e+00|   -4.535872|   -4.828375|   -5.172618|   -4.615151|   -4.642061|  -11.706304|    1.008519|
|         336|  7.2378e+00|   -4.536125|   -4.827541|   -5.171429|   -4.614088|   -4.642811|  -11.697460|    1.005955|
|         337|  7.2374e+00|   -4.536030|   -4.826284|   -5.169848|   -4.612639|   -4.643225|  -11.688428|    1.003409|
|         338|  7.2370e+00|   -4.535533|   -4.824554|   -5.167860|   -4.610763|   -4.643257|  -11.679190|    1.000882|
|         339|  7.2365e+00|   -4.534611|   -4.822338|   -5.165482|   -4.608413|   -4.642860|  -11.669763|    0.998374|
|         340|  7.2358e+00|   -4.533222|   -4.819588|   -5.162699|   -4.605537|   -4.641983|  -11.660146|    0.995889|
|         341|  7.2349e+00|   -4.531317|   -4.816260|   -5.159495|   -4.602083|   -4.640566|  -11.650355|    0.993426|
|         342|  7.2344e+00|   -4.528844|   -4.812308|   -5.155836|   -4.598002|   -4.638555|  -11.640390|    0.990988|
|         343|  7.2338e+00|   -4.525758|   -4.807724|   -5.151712|   -4.593255|   -4.635899|  -11.630278|    0.988576|
|         344|  7.2332e+00|   -4.522029|   -4.802506|   -5.147116|   -4.587816|   -4.632559|  -11.619977|    0.986192|
|         345|  7.2326e+00|   -4.517637|   -4.796619|   -5.142032|   -4.581677|   -4.628493|  -11.609481|    0.983836|
|         346|  7.2320e+00|   -4.512582|   -4.790271|   -5.136490|   -4.574879|   -4.623743|  -11.598815|    0.981509|
|         347|  7.2314e+00|   -4.506860|   -4.783414|   -5.130488|   -4.567422|   -4.618291|  -11.588036|    0.979213|
|         348|  7.2311e+00|   -4.500501|   -4.776140|   -5.124063|   -4.559368|   -4.612180|  -11.577128|    0.976949|
|         349|  7.2293e+00|   -4.493571|   -4.768667|   -5.117312|   -4.550857|   -4.605545|  -11.566131|    0.974717|
|         350|  7.2274e+00|   -4.486190|   -4.761301|   -5.110316|   -4.542078|   -4.598576|  -11.555053|    0.972518|
|         351|  7.2256e+00|   -4.478454|   -4.753925|   -5.103107|   -4.533102|   -4.591321|  -11.543950|    0.970354|
|         352|  7.2238e+00|   -4.470535|   -4.746996|   -5.095793|   -4.524203|   -4.584058|  -11.532885|    0.968223|
|         353|  7.2222e+00|   -4.462587|   -4.740368|   -5.088408|   -4.515513|   -4.576915|  -11.521868|    0.966129|
|         354|  7.2204e+00|   -4.454722|   -4.734049|   -5.081050|   -4.507121|   -4.569977|  -11.510884|    0.964070|
|         355|  7.2186e+00|   -4.446958|   -4.728064|   -5.073842|   -4.499038|   -4.563242|  -11.499975|    0.962049|
|         356|  7.2167e+00|   -4.439423|   -4.722281|   -5.066750|   -4.491317|   -4.556749|  -11.489148|    0.960065|
|         357|  7.2149e+00|   -4.432169|   -4.716690|   -5.059828|   -4.483977|   -4.550504|  -11.478429|    0.958119|
|         358|  7.2132e+00|   -4.425235|   -4.711298|   -5.053132|   -4.477026|   -4.544503|  -11.467827|    0.956213|
|         359|  7.2115e+00|   -4.418649|   -4.706063|   -5.046699|   -4.470453|   -4.538719|  -11.457412|    0.954346|
|         360|  7.2098e+00|   -4.412484|   -4.701081|   -5.040671|   -4.464318|   -4.533179|  -11.447261|    0.952520|
|         361|  7.2083e+00|   -4.406738|   -4.696363|   -5.035082|   -4.458623|   -4.527902|  -11.437379|    0.950735|
|         362|  7.2070e+00|   -4.401481|   -4.691999|   -5.029993|   -4.453449|   -4.522991|  -11.427812|    0.948992|
|         363|  7.2055e+00|   -4.396662|   -4.687965|   -5.025470|   -4.448712|   -4.518375|  -11.418632|    0.947292|
|         364|  7.2040e+00|   -4.392316|   -4.684451|   -5.021693|   -4.444502|   -4.514142|  -11.409871|    0.945634|
|         365|  7.2023e+00|   -4.388473|   -4.681494|   -5.018678|   -4.440810|   -4.510315|  -11.401599|    0.944021|
|         366|  7.2007e+00|   -4.385163|   -4.679154|   -5.016418|   -4.437650|   -4.506941|  -11.393883|    0.942451|
|         367|  7.1991e+00|   -4.382387|   -4.677490|   -5.014925|   -4.435047|   -4.504072|  -11.386752|    0.940925|
|         368|  7.1978e+00|   -4.380153|   -4.676555|   -5.014211|   -4.433004|   -4.501732|  -11.380193|    0.939445|
|         369|  7.1960e+00|   -4.378455|   -4.676379|   -5.014293|   -4.431508|   -4.499929|  -11.374194|    0.938009|
|         370|  7.1945e+00|   -4.377295|   -4.676991|   -5.015167|   -4.430563|   -4.498683|  -11.368767|    0.936619|
|         371|  7.1929e+00|   -4.376668|   -4.678402|   -5.016805|   -4.430169|   -4.498006|  -11.363969|    0.935275|
|         372|  7.1913e+00|   -4.376561|   -4.680624|   -5.019186|   -4.430315|   -4.497902|  -11.359803|    0.933977|
|         373|  7.1896e+00|   -4.376945|   -4.683610|   -5.022265|   -4.430976|   -4.498347|  -11.356246|    0.932725|
|         374|  7.1879e+00|   -4.377770|   -4.687339|   -5.025957|   -4.432119|   -4.499318|  -11.353272|    0.931520|
|         375|  7.1864e+00|   -4.378993|   -4.691762|   -5.030186|   -4.433712|   -4.500784|  -11.350801|    0.930362|
|         376|  7.1848e+00|   -4.380561|   -4.696808|   -5.034849|   -4.435721|   -4.502714|  -11.348849|    0.929252|
|         377|  7.1831e+00|   -4.382424|   -4.702433|   -5.039837|   -4.438119|   -4.505084|  -11.347346|    0.928189|
|         378|  7.1814e+00|   -4.384506|   -4.708498|   -5.045012|   -4.440834|   -4.507816|  -11.346209|    0.927176|
|         379|  7.1801e+00|   -4.386722|   -4.714875|   -5.050239|   -4.443796|   -4.510835|  -11.345313|    0.926211|
|         380|  7.1786e+00|   -4.388992|   -4.721413|   -5.055374|   -4.446936|   -4.514071|  -11.344538|    0.925296|
|         381|  7.1770e+00|   -4.391225|   -4.727955|   -5.060278|   -4.450176|   -4.517438|  -11.343769|    0.924431|
|         382|  7.1754e+00|   -4.393341|   -4.734350|   -5.064814|   -4.453444|   -4.520856|  -11.342894|    0.923615|
|         383|  7.1737e+00|   -4.395263|   -4.740437|   -5.068866|   -4.456662|   -4.524235|  -11.341850|    0.922850|
|         384|  7.1722e+00|   -4.396928|   -4.746095|   -5.072339|   -4.459768|   -4.527509|  -11.340576|    0.922136|
|         385|  7.1706e+00|   -4.398308|   -4.751244|   -5.075170|   -4.462741|   -4.530645|  -11.339087|    0.921473|
|         386|  7.1691e+00|   -4.399321|   -4.755652|   -5.077290|   -4.465463|   -4.533518|  -11.337326|    0.920860|
|         387|  7.1675e+00|   -4.399923|   -4.759207|   -5.078677|   -4.467871|   -4.536051|  -11.335253|    0.920298|
|         388|  7.1671e+00|   -4.400089|   -4.761825|   -5.079329|   -4.469910|   -4.538185|  -11.332777|    0.919787|
|         389|  7.1668e+00|   -4.399818|   -4.763455|   -5.079276|   -4.471553|   -4.539883|  -11.329830|    0.919326|
|         390|  7.1663e+00|   -4.399112|   -4.764091|   -5.078565|   -4.472767|   -4.541109|  -11.326353|    0.918916|
|         391|  7.1657e+00|   -4.397995|   -4.763773|   -5.077257|   -4.473545|   -4.541850|  -11.322353|    0.918555|
|         392|  7.1653e+00|   -4.396485|   -4.762551|   -5.075413|   -4.473873|   -4.542090|  -11.317842|    0.918244|
|         393|  7.1649e+00|   -4.394604|   -4.760472|   -5.073095|   -4.473746|   -4.541825|  -11.312855|    0.917982|
|         394|  7.1645e+00|   -4.392386|   -4.757614|   -5.070404|   -4.473174|   -4.541069|  -11.307415|    0.917769|
|         395|  7.1642e+00|   -4.389880|   -4.754093|   -5.067410|   -4.472192|   -4.539858|  -11.301555|    0.917603|
|         396|  7.1638e+00|   -4.387130|   -4.750051|   -5.064175|   -4.470831|   -4.538232|  -11.295314|    0.917485|
|         397|  7.1632e+00|   -4.384178|   -4.745592|   -5.060755|   -4.469129|   -4.536231|  -11.288733|    0.917413|
|         398|  7.1629e+00|   -4.381082|   -4.740864|   -5.057222|   -4.467156|   -4.533930|  -11.281842|    0.917388|
|         399|  7.1626e+00|   -4.377865|   -4.735933|   -5.053602|   -4.464925|   -4.531352|  -11.274693|    0.917408|
|         400|  7.1622e+00|   -4.374558|   -4.730899|   -5.049929|   -4.462467|   -4.528539|  -11.267316|    0.917472|
|         401|  7.1617e+00|   -4.371189|   -4.725842|   -5.046235|   -4.459817|   -4.525533|  -11.259682|    0.917581|
|         402|  7.1616e+00|   -4.367775|   -4.720796|   -5.042539|   -4.456997|   -4.522361|  -11.251803|    0.917733|
|         403|  7.1613e+00|   -4.364342|   -4.715819|   -5.038864|   -4.454041|   -4.519064|  -11.243748|    0.917928|
|         404|  7.1608e+00|   -4.360923|   -4.710973|   -5.035231|   -4.450987|   -4.515682|  -11.235582|    0.918164|
|         405|  7.1606e+00|   -4.357541|   -4.706302|   -5.031637|   -4.447875|   -4.512262|  -11.227371|    0.918442|
|         406|  7.1603e+00|   -4.354187|   -4.701811|   -5.028092|   -4.444693|   -4.508798|  -11.219113|    0.918761|
|         407|  7.1601e+00|   -4.350885|   -4.697525|   -5.024607|   -4.441475|   -4.505328|  -11.210766|    0.919118|
|         408|  7.1598e+00|   -4.347665|   -4.693454|   -5.021200|   -4.438264|   -4.501891|  -11.202263|    0.919515|
|         409|  7.1594e+00|   -4.344529|   -4.689623|   -5.017876|   -4.435065|   -4.498488|  -11.193602|    0.919950|
|         410|  7.1591e+00|   -4.341479|   -4.686032|   -5.014639|   -4.431881|   -4.495134|  -11.184718|    0.920422|
|         411|  7.1588e+00|   -4.338513|   -4.682672|   -5.011489|   -4.428720|   -4.491832|  -11.175574|    0.920930|
|         412|  7.1584e+00|   -4.335633|   -4.679539|   -5.008428|   -4.425587|   -4.488587|  -11.166184|    0.921474|
|         413|  7.1581e+00|   -4.332845|   -4.676630|   -5.005463|   -4.422498|   -4.485413|  -11.156577|    0.922052|
|         414|  7.1578e+00|   -4.330161|   -4.673958|   -5.002603|   -4.419467|   -4.482329|  -11.146785|    0.922663|
|         415|  7.1573e+00|   -4.327581|   -4.671523|   -4.999839|   -4.416497|   -4.479335|  -11.136887|    0.923306|
|         416|  7.1568e+00|   -4.325116|   -4.669321|   -4.997173|   -4.413611|   -4.476450|  -11.126951|    0.923981|
|         417|  7.1564e+00|   -4.322748|   -4.667333|   -4.994601|   -4.410792|   -4.473659|  -11.117029|    0.924686|
|         418|  7.1560e+00|   -4.320477|   -4.665548|   -4.992125|   -4.408045|   -4.470962|  -11.107134|    0.925420|
|         419|  7.1547e+00|   -4.318307|   -4.663950|   -4.989749|   -4.405380|   -4.468365|  -11.097293|    0.926181|
|         420|  7.1534e+00|   -4.316245|   -4.662558|   -4.987479|   -4.402798|   -4.465869|  -11.087541|    0.926969|
|         421|  7.1521e+00|   -4.314253|   -4.661340|   -4.985298|   -4.400268|   -4.463443|  -11.077899|    0.927783|
|         422|  7.1506e+00|   -4.312328|   -4.660291|   -4.983201|   -4.397791|   -4.461085|  -11.068367|    0.928620|
|         423|  7.1493e+00|   -4.310466|   -4.659401|   -4.981181|   -4.395366|   -4.458796|  -11.058922|    0.929481|
|         424|  7.1479e+00|   -4.308652|   -4.658661|   -4.979231|   -4.392975|   -4.456560|  -11.049557|    0.930363|
|         425|  7.1465e+00|   -4.306887|   -4.658090|   -4.977352|   -4.390621|   -4.454382|  -11.040274|    0.931266|
|         426|  7.1450e+00|   -4.305188|   -4.657690|   -4.975544|   -4.388322|   -4.452281|  -11.031081|    0.932189|
|         427|  7.1436e+00|   -4.303547|   -4.657447|   -4.973797|   -4.386076|   -4.450253|  -11.021981|    0.933130|
|         428|  7.1423e+00|   -4.301945|   -4.657358|   -4.972111|   -4.383863|   -4.448277|  -11.013003|    0.934089|
|         429|  7.1411e+00|   -4.300380|   -4.657404|   -4.970481|   -4.381684|   -4.446355|  -11.004145|    0.935064|
|         430|  7.1398e+00|   -4.298882|   -4.657585|   -4.968898|   -4.379579|   -4.444522|  -10.995394|    0.936054|
|         431|  7.1384e+00|   -4.297439|   -4.657895|   -4.967359|   -4.377531|   -4.442759|  -10.986721|    0.937059|
|         432|  7.1368e+00|   -4.296035|   -4.658317|   -4.965853|   -4.375523|   -4.441050|  -10.978097|    0.938077|
|         433|  7.1355e+00|   -4.294677|   -4.658827|   -4.964378|   -4.373570|   -4.439405|  -10.969471|    0.939108|
|         434|  7.1341e+00|   -4.293355|   -4.659409|   -4.962912|   -4.371664|   -4.437814|  -10.960764|    0.940151|
|         435|  7.1329e+00|   -4.292054|   -4.660048|   -4.961449|   -4.369788|   -4.436259|  -10.951910|    0.941205|
|         436|  7.1317e+00|   -4.290769|   -4.660733|   -4.959987|   -4.367939|   -4.434737|  -10.942881|    0.942269|
|         437|  7.1302e+00|   -4.289499|   -4.661449|   -4.958524|   -4.366118|   -4.433247|  -10.933683|    0.943342|
|         438|  7.1289e+00|   -4.288234|   -4.662171|   -4.957066|   -4.364318|   -4.431779|  -10.924399|    0.944424|
|         439|  7.1276e+00|   -4.286974|   -4.662894|   -4.955610|   -4.362541|   -4.430335|  -10.915065|    0.945513|
|         440|  7.1263e+00|   -4.285721|   -4.663592|   -4.954167|   -4.360791|   -4.428917|  -10.905758|    0.946610|
|         441|  7.1253e+00|   -4.284477|   -4.664258|   -4.952742|   -4.359073|   -4.427528|  -10.896517|    0.947712|
|         442|  7.1241e+00|   -4.283239|   -4.664869|   -4.951344|   -4.357387|   -4.426163|  -10.887327|    0.948820|
|         443|  7.1230e+00|   -4.282036|   -4.665424|   -4.949986|   -4.355767|   -4.424854|  -10.878154|    0.949932|
|         444|  7.1217e+00|   -4.280853|   -4.665927|   -4.948671|   -4.354192|   -4.423579|  -10.868998|    0.951048|
|         445|  7.1204e+00|   -4.279681|   -4.666368|   -4.947402|   -4.352648|   -4.422323|  -10.859906|    0.952166|
|         446|  7.1191e+00|   -4.278516|   -4.666739|   -4.946182|   -4.351133|   -4.421082|  -10.850866|    0.953286|
|         447|  7.1178e+00|   -4.277367|   -4.667039|   -4.945018|   -4.349654|   -4.419861|  -10.841932|    0.954408|
|         448|  7.1169e+00|   -4.276229|   -4.667288|   -4.943902|   -4.348199|   -4.418651|  -10.833097|    0.955529|
|         449|  7.1176e+00|   -4.275100|   -4.667501|   -4.942835|   -4.346760|   -4.417446|  -10.824373|    0.956650|
|         450|  7.1211e+00|   -4.273977|   -4.667681|   -4.941810|   -4.345340|   -4.416248|  -10.815767|    0.957770|
+-----------------------------------------------------------------------+
|        File Writing Summary       |              Filename             |
+-----------------------------------------------------------------------+
|SU2 binary restart                 |restart_flow.dat                   |
|Paraview                           |flow.vtu                           |
|Paraview surface                   |surface_flow.vtu                   |
+-----------------------------------------------------------------------+
+--------------------------------------------------------------------------------------------------------------------+
|  Inner_Iter|   Time(sec)|    rms[Rho]|   rms[RhoU]|   rms[RhoV]|   rms[RhoW]|   rms[RhoE]|     rms[nu]|          CD|
+--------------------------------------------------------------------------------------------------------------------+
|         451|  7.1679e+00|   -4.272869|   -4.667833|   -4.940822|   -4.343941|   -4.415064|  -10.807319|    0.958887|
|         452|  7.1677e+00|   -4.271786|   -4.667965|   -4.939871|   -4.342578|   -4.413909|  -10.799071|    0.960001|
|         453|  7.1669e+00|   -4.270723|   -4.668080|   -4.938956|   -4.341244|   -4.412775|  -10.791099|    0.961111|
|         454|  7.1657e+00|   -4.269693|   -4.668191|   -4.938080|   -4.339957|   -4.411683|  -10.783338|    0.962216|
|         455|  7.1645e+00|   -4.268731|   -4.668279|   -4.937263|   -4.338749|   -4.410660|  -10.775774|    0.963315|
|         456|  7.1636e+00|   -4.267815|   -4.668365|   -4.936482|   -4.337596|   -4.409687|  -10.768343|    0.964408|
|         457|  7.1625e+00|   -4.266944|   -4.668461|   -4.935723|   -4.336501|   -4.408764|  -10.761000|    0.965493|
|         458|  7.1616e+00|   -4.266126|   -4.668582|   -4.934996|   -4.335468|   -4.407900|  -10.753685|    0.966571|
|         459|  7.1602e+00|   -4.265367|   -4.668720|   -4.934307|   -4.334507|   -4.407103|  -10.746337|    0.967639|
|         460|  7.1590e+00|   -4.264649|   -4.668877|   -4.933656|   -4.333593|   -4.406352|  -10.738877|    0.968698|
|         461|  7.1579e+00|   -4.264009|   -4.669052|   -4.933048|   -4.332775|   -4.405694|  -10.731272|    0.969746|
|         462|  7.1568e+00|   -4.263420|   -4.669253|   -4.932472|   -4.332017|   -4.405096|  -10.723473|    0.970783|
|         463|  7.1557e+00|   -4.262856|   -4.669450|   -4.931906|   -4.331290|   -4.404524|  -10.715435|    0.971808|
|         464|  7.1544e+00|   -4.262319|   -4.669656|   -4.931358|   -4.330595|   -4.403980|  -10.707148|    0.972821|
|         465|  7.1534e+00|   -4.261786|   -4.669864|   -4.930829|   -4.329903|   -4.403434|  -10.698651|    0.973820|
|         466|  7.1522e+00|   -4.261241|   -4.670036|   -4.930312|   -4.329194|   -4.402871|  -10.690022|    0.974806|
|         467|  7.1509e+00|   -4.260684|   -4.670193|   -4.929807|   -4.328472|   -4.402294|  -10.681296|    0.975777|
|         468|  7.1497e+00|   -4.260107|   -4.670340|   -4.929309|   -4.327720|   -4.401690|  -10.672507|    0.976734|
|         469|  7.1486e+00|   -4.259521|   -4.670457|   -4.928832|   -4.326951|   -4.401069|  -10.663674|    0.977675|
|         470|  7.1476e+00|   -4.258985|   -4.670551|   -4.928414|   -4.326235|   -4.400501|  -10.654769|    0.978600|
|         471|  7.1466e+00|   -4.258492|   -4.670623|   -4.928050|   -4.325566|   -4.399978|  -10.645803|    0.979510|
|         472|  7.1457e+00|   -4.258006|   -4.670666|   -4.927737|   -4.324896|   -4.399446|  -10.636787|    0.980402|
|         473|  7.1445e+00|   -4.257532|   -4.670683|   -4.927483|   -4.324231|   -4.398913|  -10.627745|    0.981278|
|         474|  7.1433e+00|   -4.257072|   -4.670679|   -4.927283|   -4.323570|   -4.398375|  -10.618707|    0.982137|
|         475|  7.1419e+00|   -4.256628|   -4.670666|   -4.927140|   -4.322915|   -4.397837|  -10.609678|    0.982978|
|         476|  7.1408e+00|   -4.256216|   -4.670642|   -4.927055|   -4.322282|   -4.397316|  -10.600675|    0.983802|
|         477|  7.1398e+00|   -4.255836|   -4.670604|   -4.927021|   -4.321675|   -4.396813|  -10.591701|    0.984608|
|         478|  7.1385e+00|   -4.255494|   -4.670560|   -4.927026|   -4.321100|   -4.396333|  -10.582739|    0.985395|
|         479|  7.1374e+00|   -4.255204|   -4.670506|   -4.927070|   -4.320574|   -4.395891|  -10.573799|    0.986165|
|         480|  7.1364e+00|   -4.254955|   -4.670450|   -4.927159|   -4.320083|   -4.395474|  -10.564874|    0.986915|
|         481|  7.1352e+00|   -4.254764|   -4.670394|   -4.927301|   -4.319650|   -4.395103|  -10.555943|    0.987647|
|         482|  7.1340e+00|   -4.254629|   -4.670336|   -4.927487|   -4.319275|   -4.394780|  -10.547008|    0.988360|
|         483|  7.1328e+00|   -4.254544|   -4.670278|   -4.927723|   -4.318948|   -4.394494|  -10.538080|    0.989054|
|         484|  7.1316e+00|   -4.254527|   -4.670221|   -4.928017|   -4.318690|   -4.394266|  -10.529129|    0.989729|
|         485|  7.1306e+00|   -4.254579|   -4.670167|   -4.928356|   -4.318502|   -4.394097|  -10.520118|    0.990384|
|         486|  7.1295e+00|   -4.254740|   -4.670127|   -4.928759|   -4.318417|   -4.394023|  -10.511065|    0.991020|
|         487|  7.1284e+00|   -4.254976|   -4.670100|   -4.929202|   -4.318402|   -4.394004|  -10.502006|    0.991635|
|         488|  7.1273e+00|   -4.255315|   -4.670095|   -4.929694|   -4.318485|   -4.394070|  -10.492974|    0.992230|
|         489|  7.1260e+00|   -4.255773|   -4.670127|   -4.930238|   -4.318682|   -4.394234|  -10.483932|    0.992805|
|         490|  7.1251e+00|   -4.256322|   -4.670201|   -4.930824|   -4.318960|   -4.394463|  -10.474887|    0.993360|
|         491|  7.1242e+00|   -4.256972|   -4.670321|   -4.931454|   -4.319330|   -4.394767|  -10.465804|    0.993893|
|         492|  7.1232e+00|   -4.257724|   -4.670492|   -4.932129|   -4.319796|   -4.395150|  -10.456706|    0.994405|
|         493|  7.1222e+00|   -4.258550|   -4.670717|   -4.932845|   -4.320325|   -4.395580|  -10.447622|    0.994896|
|         494|  7.1211e+00|   -4.259444|   -4.671005|   -4.933604|   -4.320907|   -4.396048|  -10.438578|    0.995365|
|         495|  7.1202e+00|   -4.260408|   -4.671368|   -4.934404|   -4.321549|   -4.396564|  -10.429584|    0.995812|
|         496|  7.1195e+00|   -4.261446|   -4.671800|   -4.935260|   -4.322258|   -4.397139|  -10.420619|    0.996237|
|         497|  7.1185e+00|   -4.262554|   -4.672302|   -4.936172|   -4.323033|   -4.397768|  -10.411677|    0.996640|
|         498|  7.1175e+00|   -4.263728|   -4.672878|   -4.937156|   -4.323869|   -4.398452|  -10.402727|    0.997019|
|         499|  7.1164e+00|   -4.264977|   -4.673555|   -4.938215|   -4.324774|   -4.399200|  -10.393717|    0.997376|
|         500|  7.1155e+00|   -4.266290|   -4.674305|   -4.939342|   -4.325743|   -4.400003|  -10.384639|    0.997709|
|         501|  7.1144e+00|   -4.267672|   -4.675122|   -4.940530|   -4.326784|   -4.400869|  -10.375522|    0.998019|
|         502|  7.1136e+00|   -4.269128|   -4.676008|   -4.941776|   -4.327907|   -4.401806|  -10.366380|    0.998306|
|         503|  7.1126e+00|   -4.270673|   -4.676962|   -4.943086|   -4.329126|   -4.402833|  -10.357201|    0.998568|
|         504|  7.1114e+00|   -4.272301|   -4.677987|   -4.944452|   -4.330437|   -4.403944|  -10.347948|    0.998807|
|         505|  7.1104e+00|   -4.274010|   -4.679080|   -4.945876|   -4.331841|   -4.405140|  -10.338628|    0.999022|
|         506|  7.1092e+00|   -4.275839|   -4.680255|   -4.947392|   -4.333372|   -4.406460|  -10.329261|    0.999212|
|         507|  7.1081e+00|   -4.277816|   -4.681518|   -4.949004|   -4.335063|   -4.407935|  -10.319821|    0.999379|
|         508|  7.1070e+00|   -4.279920|   -4.682866|   -4.950691|   -4.336886|   -4.409537|  -10.310298|    0.999521|
|         509|  7.1060e+00|   -4.282153|   -4.684287|   -4.952468|   -4.338847|   -4.411276|  -10.300734|    0.999640|
|         510|  7.1048e+00|   -4.284463|   -4.685782|   -4.954292|   -4.340888|   -4.413093|  -10.291150|    0.999734|
|         511|  7.1038e+00|   -4.286860|   -4.687352|   -4.956159|   -4.343019|   -4.414998|  -10.281563|    0.999805|
|         512|  7.1028e+00|   -4.289375|   -4.689004|   -4.958099|   -4.345270|   -4.417023|  -10.271974|    0.999852|
|         513|  7.1019e+00|   -4.291966|   -4.690724|   -4.960064|   -4.347602|   -4.419127|  -10.262355|    0.999876|
|         514|  7.1010e+00|   -4.294636|   -4.692520|   -4.962057|   -4.350014|   -4.421314|  -10.252742|    0.999875|
|         515|  7.1000e+00|   -4.297379|   -4.694383|   -4.964087|   -4.352507|   -4.423582|  -10.243124|    0.999852|
|         516|  7.0991e+00|   -4.300193|   -4.696308|   -4.966149|   -4.355079|   -4.425934|  -10.233553|    0.999805|
|         517|  7.0981e+00|   -4.303075|   -4.698304|   -4.968257|   -4.357724|   -4.428365|  -10.224046|    0.999736|
|         518|  7.0972e+00|   -4.306011|   -4.700369|   -4.970412|   -4.360426|   -4.430863|  -10.214614|    0.999644|
|         519|  7.0964e+00|   -4.309000|   -4.702489|   -4.972622|   -4.363183|   -4.433425|  -10.205234|    0.999529|
|         520|  7.0955e+00|   -4.312042|   -4.704665|   -4.974891|   -4.365994|   -4.436050|  -10.195915|    0.999391|
|         521|  7.0945e+00|   -4.315150|   -4.706892|   -4.977229|   -4.368873|   -4.438747|  -10.186595|    0.999231|
|         522|  7.0937e+00|   -4.318288|   -4.709160|   -4.979631|   -4.371780|   -4.441481|  -10.177242|    0.999050|
|         523|  7.0928e+00|   -4.321478|   -4.711480|   -4.982109|   -4.374729|   -4.444269|  -10.167822|    0.998846|
|         524|  7.0920e+00|   -4.324710|   -4.713850|   -4.984664|   -4.377714|   -4.447101|  -10.158326|    0.998621|
|         525|  7.0912e+00|   -4.327982|   -4.716258|   -4.987304|   -4.380734|   -4.449977|  -10.148786|    0.998375|
|         526|  7.0904e+00|   -4.331307|   -4.718708|   -4.990039|   -4.383799|   -4.452907|  -10.139223|    0.998107|
|         527|  7.0895e+00|   -4.334701|   -4.721203|   -4.992873|   -4.386920|   -4.455903|  -10.129649|    0.997819|
|         528|  7.0886e+00|   -4.338189|   -4.723753|   -4.995800|   -4.390121|   -4.458995|  -10.120069|    0.997510|
|         529|  7.0877e+00|   -4.341750|   -4.726363|   -4.998801|   -4.393386|   -4.462157|  -10.110501|    0.997181|
|         530|  7.0868e+00|   -4.345378|   -4.729035|   -5.001876|   -4.396710|   -4.465384|  -10.100948|    0.996833|
|         531|  7.0859e+00|   -4.349065|   -4.731760|   -5.005039|   -4.400090|   -4.468670|  -10.091421|    0.996464|
|         532|  7.0849e+00|   -4.352808|   -4.734543|   -5.008284|   -4.403520|   -4.472008|  -10.081913|    0.996077|
|         533|  7.0838e+00|   -4.356647|   -4.737391|   -5.011594|   -4.407042|   -4.475443|  -10.072444|    0.995671|
|         534|  7.0832e+00|   -4.360588|   -4.740313|   -5.014948|   -4.410664|   -4.478980|  -10.063000|    0.995246|
|         535|  7.0824e+00|   -4.364580|   -4.743305|   -5.018362|   -4.414338|   -4.482569|  -10.053573|    0.994804|
|         536|  7.0814e+00|   -4.368627|   -4.746376|   -5.021836|   -4.418067|   -4.486214|  -10.044166|    0.994344|
|         537|  7.0804e+00|   -4.372734|   -4.749533|   -5.025381|   -4.421857|   -4.489922|  -10.034784|    0.993867|
|         538|  7.0795e+00|   -4.376883|   -4.752780|   -5.028986|   -4.425691|   -4.493677|  -10.025427|    0.993373|
[...]
|        4140|  7.2146e+00|   -7.118793|   -7.412492|   -7.669073|   -7.200817|   -7.257969|   -9.497936|    0.966092|
|        4141|  7.2146e+00|   -7.118080|   -7.411052|   -7.668297|   -7.200039|   -7.256729|   -9.501117|    0.966088|
|        4142|  7.2146e+00|   -7.117514|   -7.409786|   -7.667644|   -7.199407|   -7.255622|   -9.504595|    0.966084|
|        4143|  7.2146e+00|   -7.117096|   -7.408696|   -7.667115|   -7.198922|   -7.254650|   -9.508361|    0.966080|
|        4144|  7.2146e+00|   -7.116827|   -7.407784|   -7.666712|   -7.198584|   -7.253815|   -9.512406|    0.966077|
|        4145|  7.2146e+00|   -7.116707|   -7.407052|   -7.666436|   -7.198393|   -7.253118|   -9.516718|    0.966073|
|        4146|  7.2146e+00|   -7.116738|   -7.406502|   -7.666290|   -7.198349|   -7.252560|   -9.521283|    0.966069|
|        4147|  7.2146e+00|   -7.116918|   -7.406135|   -7.666273|   -7.198453|   -7.252143|   -9.526085|    0.966066|
|        4148|  7.2146e+00|   -7.117248|   -7.405953|   -7.666387|   -7.198704|   -7.251868|   -9.531104|    0.966062|
|        4149|  7.2146e+00|   -7.117729|   -7.405957|   -7.666633|   -7.199101|   -7.251735|   -9.536319|    0.966059|
|        4150|  7.2146e+00|   -7.118358|   -7.406147|   -7.667009|   -7.199645|   -7.251745|   -9.541704|    0.966056|
|        4151|  7.2147e+00|   -7.119137|   -7.406525|   -7.667517|   -7.200334|   -7.251898|   -9.547230|    0.966053|
|        4152|  7.2147e+00|   -7.120064|   -7.407090|   -7.668157|   -7.201167|   -7.252195|   -9.552863|    0.966049|
|        4153|  7.2147e+00|   -7.121138|   -7.407843|   -7.668926|   -7.202143|   -7.252634|   -9.558566|    0.966046|
|        4154|  7.2147e+00|   -7.122357|   -7.408783|   -7.669825|   -7.203260|   -7.253214|   -9.564295|    0.966043|
|        4155|  7.2146e+00|   -7.123720|   -7.409910|   -7.670853|   -7.204517|   -7.253937|   -9.570002|    0.966041|
|        4156|  7.2146e+00|   -7.125225|   -7.411224|   -7.672008|   -7.205912|   -7.254800|   -9.575634|    0.966038|
|        4157|  7.2146e+00|   -7.126870|   -7.412724|   -7.673290|   -7.207444|   -7.255803|   -9.581133|    0.966035|
|        4158|  7.2146e+00|   -7.128653|   -7.414409|   -7.674695|   -7.209108|   -7.256946|   -9.586435|    0.966032|
|        4159|  7.2146e+00|   -7.130573|   -7.416277|   -7.676222|   -7.210905|   -7.258225|   -9.591472|    0.966030|
|        4160|  7.2146e+00|   -7.132625|   -7.418326|   -7.677868|   -7.212829|   -7.259641|   -9.596172|    0.966027|
|        4161|  7.2145e+00|   -7.134806|   -7.420555|   -7.679631|   -7.214879|   -7.261191|   -9.600459|    0.966025|
|        4162|  7.2145e+00|   -7.137114|   -7.422962|   -7.681507|   -7.217051|   -7.262872|   -9.604256|    0.966023|
|        4163|  7.2145e+00|   -7.139545|   -7.425542|   -7.683493|   -7.219341|   -7.264682|   -9.607488|    0.966021|
|        4164|  7.2145e+00|   -7.142094|   -7.428294|   -7.685585|   -7.221746|   -7.266619|   -9.610080|    0.966018|
|        4165|  7.2144e+00|   -7.144756|   -7.431215|   -7.687778|   -7.224260|   -7.268680|   -9.611962|    0.966016|
|        4166|  7.2144e+00|   -7.147527|   -7.434298|   -7.690068|   -7.226880|   -7.270859|   -9.613071|    0.966015|
|        4167|  7.2144e+00|   -7.150401|   -7.437541|   -7.692449|   -7.229599|   -7.273155|   -9.613354|    0.966013|
|        4168|  7.2144e+00|   -7.153372|   -7.440937|   -7.694917|   -7.232413|   -7.275562|   -9.612768|    0.966011|
|        4169|  7.2144e+00|   -7.156432|   -7.444481|   -7.697464|   -7.235315|   -7.278075|   -9.611286|    0.966009|
|        4170|  7.2144e+00|   -7.159576|   -7.448166|   -7.700086|   -7.238299|   -7.280690|   -9.608894|    0.966008|
|        4171|  7.2144e+00|   -7.162796|   -7.451984|   -7.702774|   -7.241358|   -7.283402|   -9.605592|    0.966006|
|        4172|  7.2143e+00|   -7.166084|   -7.455928|   -7.705523|   -7.244484|   -7.286204|   -9.601398|    0.966005|
|        4173|  7.2143e+00|   -7.169432|   -7.459990|   -7.708324|   -7.247672|   -7.289091|   -9.596342|    0.966004|
|        4174|  7.2143e+00|   -7.172830|   -7.464158|   -7.711169|   -7.250911|   -7.292056|   -9.590469|    0.966003|
|        4175|  7.2143e+00|   -7.176270|   -7.468422|   -7.714050|   -7.254193|   -7.295091|   -9.583833|    0.966002|
|        4176|  7.2143e+00|   -7.179740|   -7.472771|   -7.716958|   -7.257509|   -7.298189|   -9.576497|    0.966001|
|        4177|  7.2142e+00|   -7.183231|   -7.477191|   -7.719883|   -7.260849|   -7.301341|   -9.568532|    0.966000|
|        4178|  7.2142e+00|   -7.186730|   -7.481669|   -7.722816|   -7.264203|   -7.304539|   -9.560011|    0.965999|
|        4179|  7.2142e+00|   -7.190226|   -7.486189|   -7.725746|   -7.267560|   -7.307772|   -9.551010|    0.965999|
|        4180|  7.2142e+00|   -7.193707|   -7.490736|   -7.728662|   -7.270909|   -7.311031|   -9.541602|    0.965998|
|        4181|  7.2142e+00|   -7.197158|   -7.495291|   -7.731555|   -7.274237|   -7.314306|   -9.531862|    0.965998|
|        4182|  7.2142e+00|   -7.200568|   -7.499837|   -7.734412|   -7.277533|   -7.317584|   -9.521857|    0.965997|
|        4183|  7.2142e+00|   -7.203922|   -7.504353|   -7.737222|   -7.280784|   -7.320855|   -9.511655|    0.965997|
|        4184|  7.2142e+00|   -7.207206|   -7.508818|   -7.739974|   -7.283978|   -7.324107|   -9.501315|    0.965997|
|        4185|  7.2142e+00|   -7.210405|   -7.513211|   -7.742656|   -7.287102|   -7.327326|   -9.490893|    0.965997|
|        4186|  7.2142e+00|   -7.213506|   -7.517508|   -7.745257|   -7.290141|   -7.330501|   -9.480439|    0.965997|
|        4187|  7.2142e+00|   -7.216494|   -7.521686|   -7.747765|   -7.293083|   -7.333617|   -9.469997|    0.965997|
|        4188|  7.2142e+00|   -7.219354|   -7.525721|   -7.750170|   -7.295915|   -7.336661|   -9.459609|    0.965997|
|        4189|  7.2142e+00|   -7.222073|   -7.529587|   -7.752459|   -7.298623|   -7.339621|   -9.449307|    0.965997|
|        4190|  7.2142e+00|   -7.224638|   -7.533262|   -7.754623|   -7.301196|   -7.342482|   -9.439124|    0.965997|
|        4191|  7.2142e+00|   -7.227034|   -7.536720|   -7.756652|   -7.303619|   -7.345231|   -9.429086|    0.965998|
|        4192|  7.2142e+00|   -7.229251|   -7.539938|   -7.758535|   -7.305883|   -7.347854|   -9.419216|    0.965998|
|        4193|  7.2142e+00|   -7.231276|   -7.542892|   -7.760264|   -7.307974|   -7.350338|   -9.409533|    0.965999|
|        4194|  7.2142e+00|   -7.233097|   -7.545560|   -7.761831|   -7.309884|   -7.352670|   -9.400054|    0.966000|
|        4195|  7.2142e+00|   -7.234706|   -7.547922|   -7.763230|   -7.311602|   -7.354836|   -9.390794|    0.966000|
|        4196|  7.2142e+00|   -7.236093|   -7.549958|   -7.764453|   -7.313120|   -7.356826|   -9.381763|    0.966001|
|        4197|  7.2143e+00|   -7.237252|   -7.551654|   -7.765496|   -7.314431|   -7.358627|   -9.372971|    0.966002|
|        4198|  7.2143e+00|   -7.238179|   -7.552995|   -7.766356|   -7.315528|   -7.360232|   -9.364428|    0.966003|
|        4199|  7.2143e+00|   -7.238868|   -7.553972|   -7.767031|   -7.316407|   -7.361631|   -9.356138|    0.966004|
|        4200|  7.2143e+00|   -7.239320|   -7.554576|   -7.767519|   -7.317064|   -7.362816|   -9.348108|    0.966005|
+-----------------------------------------------------------------------+
|        File Writing Summary       |              Filename             |
+-----------------------------------------------------------------------+
|SU2 binary restart                 |restart_flow.dat                   |
|Paraview                           |flow.vtu                           |
|Paraview surface                   |surface_flow.vtu                   |
+-----------------------------------------------------------------------+
+--------------------------------------------------------------------------------------------------------------------+
|  Inner_Iter|   Time(sec)|    rms[Rho]|   rms[RhoU]|   rms[RhoV]|   rms[RhoW]|   rms[RhoE]|     rms[nu]|          CD|
+--------------------------------------------------------------------------------------------------------------------+
|        4201|  7.2193e+00|   -7.239533|   -7.554805|   -7.767821|   -7.317499|   -7.363783|   -9.340341|    0.966006|
|        4202|  7.2195e+00|   -7.239508|   -7.554658|   -7.767939|   -7.317710|   -7.364526|   -9.332840|    0.966007|
|        4203|  7.2196e+00|   -7.239251|   -7.554139|   -7.767874|   -7.317700|   -7.365042|   -9.325608|    0.966009|
|        4204|  7.2198e+00|   -7.238764|   -7.553252|   -7.767631|   -7.317471|   -7.365330|   -9.318646|    0.966010|
|        4205|  7.2198e+00|   -7.238054|   -7.552008|   -7.767214|   -7.317028|   -7.365390|   -9.311955|    0.966011|
|        4206|  7.2200e+00|   -7.237129|   -7.550420|   -7.766632|   -7.316375|   -7.365224|   -9.305536|    0.966013|
|        4207|  7.2200e+00|   -7.235999|   -7.548502|   -7.765889|   -7.315520|   -7.364834|   -9.299389|    0.966014|
|        4208|  7.2200e+00|   -7.234674|   -7.546274|   -7.764996|   -7.314472|   -7.364225|   -9.293513|    0.966016|
|        4209|  7.2200e+00|   -7.233164|   -7.543754|   -7.763960|   -7.313239|   -7.363404|   -9.287909|    0.966017|
|        4210|  7.2200e+00|   -7.231483|   -7.540966|   -7.762792|   -7.311831|   -7.362378|   -9.282574|    0.966019|
|        4211|  7.2200e+00|   -7.229643|   -7.537932|   -7.761503|   -7.310261|   -7.361156|   -9.277510|    0.966020|
|        4212|  7.2200e+00|   -7.227659|   -7.534676|   -7.760103|   -7.308541|   -7.359749|   -9.272713|    0.966022|
|        4213|  7.2200e+00|   -7.225546|   -7.531224|   -7.758604|   -7.306682|   -7.358167|   -9.268184|    0.966024|
|        4214|  7.2200e+00|   -7.223317|   -7.527601|   -7.757017|   -7.304698|   -7.356422|   -9.263920|    0.966025|
|        4215|  7.2200e+00|   -7.220988|   -7.523831|   -7.755354|   -7.302603|   -7.354528|   -9.259922|    0.966027|
|        4216|  7.2200e+00|   -7.218574|   -7.519940|   -7.753628|   -7.300409|   -7.352497|   -9.256187|    0.966029|
|        4217|  7.2200e+00|   -7.216088|   -7.515952|   -7.751851|   -7.298131|   -7.350342|   -9.252715|    0.966031|
|        4218|  7.2200e+00|   -7.213546|   -7.511890|   -7.750035|   -7.295782|   -7.348079|   -9.249503|    0.966033|
|        4219|  7.2200e+00|   -7.210963|   -7.507778|   -7.748192|   -7.293377|   -7.345721|   -9.246552|    0.966034|
|        4220|  7.2200e+00|   -7.208352|   -7.503637|   -7.746334|   -7.290927|   -7.343283|   -9.243859|    0.966036|
|        4221|  7.2200e+00|   -7.205728|   -7.499488|   -7.744471|   -7.288447|   -7.340780|   -9.241424|    0.966038|
|        4222|  7.2200e+00|   -7.203105|   -7.495350|   -7.742616|   -7.285950|   -7.338224|   -9.239245|    0.966040|
|        4223|  7.2201e+00|   -7.200494|   -7.491242|   -7.740779|   -7.283448|   -7.335632|   -9.237322|    0.966042|
|        4224|  7.2201e+00|   -7.197908|   -7.487182|   -7.738969|   -7.280953|   -7.333015|   -9.235653|    0.966044|
|        4225|  7.2201e+00|   -7.195359|   -7.483186|   -7.737198|   -7.278476|   -7.330387|   -9.234238|    0.966045|
|        4226|  7.2201e+00|   -7.192857|   -7.479268|   -7.735473|   -7.276028|   -7.327761|   -9.233076|    0.966047|
|        4227|  7.2201e+00|   -7.190412|   -7.475443|   -7.733805|   -7.273621|   -7.325149|   -9.232166|    0.966049|
|        4228|  7.2201e+00|   -7.188035|   -7.471723|   -7.732202|   -7.271263|   -7.322561|   -9.231508|    0.966051|
|        4229|  7.2201e+00|   -7.185733|   -7.468120|   -7.730670|   -7.268965|   -7.320010|   -9.231101|    0.966053|
|        4230|  7.2201e+00|   -7.183516|   -7.464645|   -7.729220|   -7.266735|   -7.317505|   -9.230944|    0.966054|
|        4231|  7.2201e+00|   -7.181392|   -7.461308|   -7.727856|   -7.264581|   -7.315058|   -9.231038|    0.966056|
|        4232|  7.2201e+00|   -7.179368|   -7.458118|   -7.726586|   -7.262511|   -7.312677|   -9.231381|    0.966058|
|        4233|  7.2200e+00|   -7.177452|   -7.455083|   -7.725417|   -7.260534|   -7.310373|   -9.231974|    0.966060|
|        4234|  7.2201e+00|   -7.175650|   -7.452211|   -7.724354|   -7.258655|   -7.308154|   -9.232817|    0.966061|
|        4235|  7.2200e+00|   -7.173969|   -7.449508|   -7.723402|   -7.256882|   -7.306028|   -9.233909|    0.966063|
|        4236|  7.2201e+00|   -7.172413|   -7.446982|   -7.722568|   -7.255221|   -7.304002|   -9.235251|    0.966065|
|        4237|  7.2201e+00|   -7.170989|   -7.444637|   -7.721855|   -7.253677|   -7.302083|   -9.236842|    0.966066|
|        4238|  7.2201e+00|   -7.169700|   -7.442479|   -7.721267|   -7.252255|   -7.300279|   -9.238683|    0.966068|
|        4239|  7.2201e+00|   -7.168552|   -7.440511|   -7.720809|   -7.250961|   -7.298594|   -9.240773|    0.966069|
|        4240|  7.2200e+00|   -7.167549|   -7.438739|   -7.720484|   -7.249798|   -7.297037|   -9.243114|    0.966071|
|        4241|  7.2200e+00|   -7.166694|   -7.437165|   -7.720296|   -7.248771|   -7.295610|   -9.245705|    0.966072|
|        4242|  7.2200e+00|   -7.165991|   -7.435793|   -7.720246|   -7.247884|   -7.294320|   -9.248547|    0.966073|
|        4243|  7.2201e+00|   -7.165442|   -7.434626|   -7.720337|   -7.247140|   -7.293171|   -9.251639|    0.966075|
|        4244|  7.2201e+00|   -7.165050|   -7.433667|   -7.720571|   -7.246541|   -7.292166|   -9.254983|    0.966076|
|        4245|  7.2201e+00|   -7.164817|   -7.432917|   -7.720950|   -7.246091|   -7.291310|   -9.258578|    0.966077|
|        4246|  7.2201e+00|   -7.164745|   -7.432378|   -7.721475|   -7.245792|   -7.290605|   -9.262425|    0.966078|
|        4247|  7.2201e+00|   -7.164835|   -7.432052|   -7.722147|   -7.245645|   -7.290055|   -9.266524|    0.966079|
|        4248|  7.2201e+00|   -7.165089|   -7.431941|   -7.722966|   -7.245652|   -7.289661|   -9.270876|    0.966080|
|        4249|  7.2201e+00|   -7.165506|   -7.432044|   -7.723932|   -7.245814|   -7.289427|   -9.275479|    0.966081|
|        4250|  7.2200e+00|   -7.166088|   -7.432364|   -7.725045|   -7.246133|   -7.289354|   -9.280334|    0.966082|
|        4251|  7.2200e+00|   -7.166836|   -7.432901|   -7.726304|   -7.246609|   -7.289444|   -9.285442|    0.966083|
|        4252|  7.2200e+00|   -7.167747|   -7.433655|   -7.727708|   -7.247242|   -7.289698|   -9.290801|    0.966083|
|        4253|  7.2200e+00|   -7.168824|   -7.434625|   -7.729255|   -7.248033|   -7.290117|   -9.296411|    0.966084|
|        4254|  7.2201e+00|   -7.170063|   -7.435813|   -7.730944|   -7.248982|   -7.290702|   -9.302271|    0.966085|
|        4255|  7.2201e+00|   -7.171466|   -7.437218|   -7.732773|   -7.250088|   -7.291455|   -9.308380|    0.966085|
|        4256|  7.2200e+00|   -7.173031|   -7.438838|   -7.734739|   -7.251350|   -7.292375|   -9.314737|    0.966086|
|        4257|  7.2200e+00|   -7.174755|   -7.440673|   -7.736839|   -7.252768|   -7.293463|   -9.321339|    0.966086|
|        4258|  7.2200e+00|   -7.176637|   -7.442720|   -7.739068|   -7.254340|   -7.294718|   -9.328184|    0.966086|
|        4259|  7.2200e+00|   -7.178675|   -7.444979|   -7.741424|   -7.256064|   -7.296138|   -9.335270|    0.966086|
|        4260|  7.2200e+00|   -7.180863|   -7.447446|   -7.743899|   -7.257936|   -7.297723|   -9.342591|    0.966086|
|        4261|  7.2200e+00|   -7.183200|   -7.450119|   -7.746491|   -7.259956|   -7.299472|   -9.350145|    0.966086|
|        4262|  7.2200e+00|   -7.185680|   -7.452994|   -7.749191|   -7.262119|   -7.301382|   -9.357924|    0.966086|
|        4263|  7.2200e+00|   -7.188298|   -7.456068|   -7.751993|   -7.264421|   -7.303450|   -9.365924|    0.966086|
|        4264|  7.2200e+00|   -7.191050|   -7.459336|   -7.754889|   -7.266858|   -7.305673|   -9.374136|    0.966086|
|        4265|  7.2200e+00|   -7.193928|   -7.462793|   -7.757872|   -7.269424|   -7.308048|   -9.382552|    0.966086|
|        4266|  7.2199e+00|   -7.196927|   -7.466433|   -7.760934|   -7.272116|   -7.310572|   -9.391161|    0.966085|
|        4267|  7.2199e+00|   -7.200039|   -7.470250|   -7.764064|   -7.274926|   -7.313239|   -9.399951|    0.966085|
|        4268|  7.2199e+00|   -7.203256|   -7.474235|   -7.767252|   -7.277847|   -7.316045|   -9.408909|    0.966084|
|        4269|  7.2199e+00|   -7.206570|   -7.478382|   -7.770488|   -7.280873|   -7.318984|   -9.418018|    0.966084|
|        4270|  7.2199e+00|   -7.209971|   -7.482680|   -7.773760|   -7.283995|   -7.322051|   -9.427260|    0.966083|
|        4271|  7.2199e+00|   -7.213448|   -7.487120|   -7.777056|   -7.287204|   -7.325238|   -9.436616|    0.966082|
|        4272|  7.2199e+00|   -7.216991|   -7.491688|   -7.780362|   -7.290491|   -7.328537|   -9.446061|    0.966081|
|        4273|  7.2199e+00|   -7.220586|   -7.496374|   -7.783665|   -7.293845|   -7.331941|   -9.455570|    0.966080|
|        4274|  7.2199e+00|   -7.224223|   -7.501161|   -7.786951|   -7.297254|   -7.335440|   -9.465113|    0.966079|
|        4275|  7.2198e+00|   -7.227885|   -7.506036|   -7.790203|   -7.300707|   -7.339024|   -9.474658|    0.966078|
|        4276|  7.2198e+00|   -7.231557|   -7.510979|   -7.793407|   -7.304189|   -7.342681|   -9.484170|    0.966076|
|        4277|  7.2198e+00|   -7.235226|   -7.515973|   -7.796545|   -7.307688|   -7.346400|   -9.493609|    0.966075|
|        4278|  7.2198e+00|   -7.238873|   -7.520998|   -7.799602|   -7.311188|   -7.350169|   -9.502934|    0.966074|
|        4279|  7.2198e+00|   -7.242480|   -7.526030|   -7.802560|   -7.314673|   -7.353972|   -9.512099|    0.966072|
|        4280|  7.2198e+00|   -7.246030|   -7.531047|   -7.805402|   -7.318128|   -7.357795|   -9.521056|    0.966070|
|        4281|  7.2197e+00|   -7.249501|   -7.536024|   -7.808110|   -7.321533|   -7.361621|   -9.529755|    0.966069|
|        4282|  7.2197e+00|   -7.252877|   -7.540932|   -7.810668|   -7.324872|   -7.365435|   -9.538144|    0.966067|
|        4283|  7.2197e+00|   -7.256135|   -7.545744|   -7.813058|   -7.328125|   -7.369218|   -9.546169|    0.966065|
|        4284|  7.2197e+00|   -7.259255|   -7.550431|   -7.815266|   -7.331274|   -7.372951|   -9.553779|    0.966063|
|        4285|  7.2197e+00|   -7.262219|   -7.554960|   -7.817274|   -7.334299|   -7.376616|   -9.560922|    0.966061|
|        4286|  7.2197e+00|   -7.265004|   -7.559301|   -7.819070|   -7.337181|   -7.380192|   -9.567547|    0.966059|
|        4287|  7.2197e+00|   -7.267591|   -7.563422|   -7.820639|   -7.339899|   -7.383658|   -9.573611|    0.966057|
|        4288|  7.2197e+00|   -7.269962|   -7.567289|   -7.821969|   -7.342436|   -7.386994|   -9.579072|    0.966054|
|        4289|  7.2197e+00|   -7.272097|   -7.570873|   -7.823050|   -7.344771|   -7.390179|   -9.583898|    0.966052|
|        4290|  7.2197e+00|   -7.273979|   -7.574141|   -7.823873|   -7.346888|   -7.393190|   -9.588062|    0.966050|
|        4291|  7.2197e+00|   -7.275595|   -7.577065|   -7.824432|   -7.348770|   -7.396009|   -9.591547|    0.966047|
|        4292|  7.2197e+00|   -7.276928|   -7.579616|   -7.824721|   -7.350400|   -7.398613|   -9.594344|    0.966044|
|        4293|  7.2197e+00|   -7.277965|   -7.581770|   -7.824736|   -7.351763|   -7.400981|   -9.596456|    0.966042|
|        4294|  7.2197e+00|   -7.278697|   -7.583505|   -7.824477|   -7.352848|   -7.403096|   -9.597893|    0.966039|
|        4295|  7.2197e+00|   -7.279117|   -7.584802|   -7.823945|   -7.353643|   -7.404940|   -9.598677|    0.966036|
|        4296|  7.2197e+00|   -7.279218|   -7.585650|   -7.823144|   -7.354140|   -7.406497|   -9.598835|    0.966033|
|        4297|  7.2197e+00|   -7.278998|   -7.586037|   -7.822079|   -7.354333|   -7.407752|   -9.598404|    0.966030|
|        4298|  7.2196e+00|   -7.278458|   -7.585960|   -7.820758|   -7.354217|   -7.408695|   -9.597428|    0.966027|
|        4299|  7.2196e+00|   -7.277601|   -7.585418|   -7.819189|   -7.353792|   -7.409317|   -9.595953|    0.966024|
