Nodes:  tri[1212-1213]
Tasks:  128
NPN:    64
Config: /scratch/anthonyy/reentry/orion/config/generated/m1.5_aoa32.cfg

-------------------------------------------------------------------------
|    ___ _   _ ___                                                      |
|   / __| | | |_  )   Release 7.5.1 "Blackbird"                         |
|   \__ \ |_| |/ /                                                      |
|   |___/\___//___|   Suite (Computational Fluid Dynamics Code)         |
|                                                                       |
-------------------------------------------------------------------------
| SU2 Project Website: https://su2code.github.io                        |
|                                                                       |
| The SU2 Project is maintained by the SU2 Foundation                   |
| (http://su2foundation.org)                                            |
-------------------------------------------------------------------------
| Copyright 2012-2023, SU2 Contributors                                 |
|                                                                       |
| SU2 is free software; you can redistribute it and/or                  |
| modify it under the terms of the GNU Lesser General Public            |
| License as published by the Free Software Foundation; either          |
| version 2.1 of the License, or (at your option) any later version.    |
|                                                                       |
| SU2 is distributed in the hope that it will be useful,                |
| but WITHOUT ANY WARRANTY; without even the implied warranty of        |
| MERCHANTABILITY or FITNESS FOR A PARTICULAR PURPOSE. See the GNU      |
| Lesser General Public License for more details.                       |
|                                                                       |
| You should have received a copy of the GNU Lesser General Public      |
| License along with SU2. If not, see <http://www.gnu.org/licenses/>.   |
-------------------------------------------------------------------------

Parsing config file for zone 0

----------------- Physical Case Definition ( Zone 0 ) -------------------
Compressible RANS equations.
Turbulence model: Spalart-Allmaras-noft2
Hybrid RANS/LES: No Hybrid RANS/LES
Mach number: 1.5.
Angle of attack (AoA): 32 deg, and angle of sideslip (AoS): 0 deg.
Reynolds number: 1.71557e+08. Reference length 5.
No restart solution, use the values at infinity (freestream).
Non-Dimensional simulation (V=1.0, Rho=1.0, T=1.0 at the farfield).
The reference area will be computed using y(2D) or z(3D) projection.
The semi-span will be computed using the max y(3D) value.
The reference length is 0.64607 m.
Reference origin for moment evaluation is (0.25, 0, 0).
Surface(s) where the force coefficients are evaluated: ORION_SURFACE.

Input mesh file name: ../../mesh/fine.su2

--------------- Space Numerical Integration ( Zone 0 ) ------------------
Jameson-Schmidt-Turkel scheme (2nd order in space) for the flow inviscid terms.
JST viscous coefficients (2nd & 4th): 0.5, 0.02.
The method includes a grid stretching correction (p = 0.3).
Scalar upwind solver for the turbulence model.
First order integration in space.
Average of gradients with correction (viscous flow terms).
Average of gradients with correction (viscous turbulence terms).
Gradient for upwind reconstruction: Green-Gauss.
Gradient for viscous and source terms: Green-Gauss.

--------------- Time Numerical Integration  ( Zone 0 ) ------------------
Local time stepping (steady state simulation).
Euler implicit method for the flow equations.
FGMRES is used for solving the linear system.
Using a ILU(0) preconditioning.
Convergence criteria of the linear solver: 1e-06.
Max number of linear iterations: 100.
CFL adaptation. Factor down: 0.5, factor up: 1.2,
                lower limit: 0.1, upper limit: 3,
                acceptable linear residual: 0.001.
Courant-Friedrichs-Lewy number:        1
Euler implicit time integration for the turbulence model.

------------------ Convergence Criteria  ( Zone 0 ) ---------------------
Maximum number of solver subiterations: 999999.
Begin convergence monitoring at iteration 5.
Residual minimum value: 1e-8.
Cauchy series min. value: 1e-10.
Number of Cauchy elements: 100.
Begin windowed time average at iteration 0.

-------------------- Output Information ( Zone 0 ) ----------------------
File writing frequency: 
+------------------------------------+
|                     File| Frequency|
+------------------------------------+
|                  RESTART|       150|
|                 PARAVIEW|       150|
|         SURFACE_PARAVIEW|       150|
+------------------------------------+
Writing the convergence history file every 1 inner iterations.
Writing the screen convergence history every 1 inner iterations.
The tabular file format is CSV (.csv).
Convergence history file name: history.
Forces breakdown file name: forces_breakdown.dat.
Surface file name: surface_flow.
Volume file name: flow.
Restart file name: restart_flow.

------------- Config File Boundary Information ( Zone 0 ) ---------------
+-----------------------------------------------------------------------+
|                        Marker Type|                        Marker Name|
+-----------------------------------------------------------------------+
|                          Far-field|                           FARFIELD|
+-----------------------------------------------------------------------+
|                     Heat flux wall|                      ORION_SURFACE|
+-----------------------------------------------------------------------+

-------------------- Output Preprocessing ( Zone 0 ) --------------------

WARNING: SURFACE_PRESSURE_DROP can only be computed for at least 2 surfaces (outlet, inlet, ...)

Screen output fields: INNER_ITER, WALL_TIME, RMS_DENSITY, RMS_MOMENTUM-X, RMS_MOMENTUM-Y, RMS_MOMENTUM-Z, RMS_ENERGY, RMS_NU_TILDE, DRAG
History output group(s): ITER, RMS_RES
Convergence field(s): RMS_DENSITY
Warning: No (valid) fields chosen for time convergence monitoring. Time convergence monitoring inactive.
Volume output fields: MACH, PRESSURE, TEMPERATURE, DENSITY, HEAT_FLUX, Y_PLUS, COORDINATES, SOLUTION

------------------- Geometry Preprocessing ( Zone 0 ) -------------------
Three dimensional problem.
62211324 grid points before partitioning.
190879888 volume elements before partitioning.
2 surface markers.
4104 boundary elements in index 0 (Marker = FARFIELD).
1824836 boundary elements in index 1 (Marker = ORION_SURFACE).
Executing the partitioning functions.
Building the graph adjacency structure.
Calling ParMETIS... graph partitioning complete (4959327 edge cuts).
Distributing ParMETIS coloring.
Rebalancing vertices.
Rebalancing volume element connectivity.
Rebalancing markers and surface elements.
66952290 vertices including ghost points. 
197997438 interior elements including halo cells. 
103171259 tetrahedra.
94500655 prisms.
325524 pyramids.
Establishing MPI communication patterns.
Setting point connectivity.
Renumbering points (Reverse Cuthill McKee Ordering).
Recomputing point connectivity.
Setting element connectivity.
Checking the numerical grid orientation.
All volume elements are correctly orientend.
All surface elements are correctly orientend.
Identifying edges and vertices.
Setting the control volume structure.
Volume of the computational grid: 535693.
Searching for the closest normal neighbors to the surfaces.
Storing a mapping from global to local point index.
Compute the surface curvature.
Max K: 132.896. Mean K: 3.9104. Standard deviation K: 7.49569.
Checking for periodicity.
Computing mesh quality statistics for the dual control volumes.
+--------------------------------------------------------------+
|           Mesh Quality Metric|        Minimum|        Maximum|
+--------------------------------------------------------------+
|    Orthogonality Angle (deg.)|        53.0661|             90|
|     CV Face Area Aspect Ratio|        1.01143|        75298.5|
|           CV Sub-Volume Ratio|        1.00029|        45.0258|
+--------------------------------------------------------------+
Finding max control volume width.
Communicating number of neighbors.
Reference area = 11.531 m^2.
Semi-span length = 2.49999 m.
Wetted area = 57.9072 m^2.
Area projection in the x-plane = 19.6343 m^2, y-plane = 11.531 m^2, z-plane = 11.531 m^2.
Max. coordinate in the x-direction = 2.575 m, y-direction = 2.49999 m, z-direction = 2.49999 m.
Min. coordinate in the x-direction = -0.71 m, y-direction = -2.49999 m, z-direction = -2.5 m.
Computing wall distances.

-------------------- Solver Preprocessing ( Zone 0 ) --------------------
Viscous flow: Computing pressure using the ideal gas law
based on the free-stream temperature and a density computed
from the Reynolds number.
Force coefficients computed using free-stream values.

-- Models:
+------------------------------------------------------------------------------+
|          Viscosity Model|        Conductivity Model|              Fluid Model|
+------------------------------------------------------------------------------+
|               SUTHERLAND|          CONSTANT_PRANDTL|             STANDARD_AIR|
+------------------------------------------------------------------------------+
-- Fluid properties:
+------------------------------------------------------------------------------+
|                  Name|    Dim. value|    Ref. value|      Unit|Non-dim. value|
+------------------------------------------------------------------------------+
|        Ref. Viscosity|     1.716e-05|       613.934|   N.s/m^2|   2.79509e-08|
|      Sutherland Temp.|        273.15|        288.15|         K|      0.947944|
|     Sutherland Const.|         110.4|        288.15|         K|      0.383134|
+------------------------------------------------------------------------------+
|        Prandtl (Lam.)|             -|             -|         -|          0.72|
|       Prandtl (Turb.)|             -|             -|         -|           0.9|
+------------------------------------------------------------------------------+
|          Gas Constant|       287.058|       904.233|  N.m/kg.K|       0.31746|
|      Spec. Heat Ratio|             -|             -|         -|           1.4|
+------------------------------------------------------------------------------+
-- Initial and free-stream conditions:
+------------------------------------------------------------------------------+
|                  Name|    Dim. value|    Ref. value|      Unit|Non-dim. value|
+------------------------------------------------------------------------------+
|       Static Pressure|       99485.6|        313380|        Pa|       0.31746|
|               Density|       1.20274|       1.20274|    kg/m^3|             1|
|           Temperature|        288.15|        288.15|         K|             1|
|          Total Energy|        337067|        260555|   m^2/s^2|       1.29365|
|            Velocity-X|       432.882|       510.446|       m/s|      0.848048|
|            Velocity-Y|             0|       510.446|       m/s|             0|
|            Velocity-Z|       270.495|       510.446|       m/s|      0.529919|
|    Velocity Magnitude|       510.446|       510.446|       m/s|             1|
+------------------------------------------------------------------------------+
|             Viscosity|    1.7893e-05|       613.934|   N.s/m^2|   2.91448e-08|
|          Conductivity|             -|        555139|   W/m^2.K|             -|
|     Turb. Kin. Energy|        977.08|        260555|   m^2/s^2|       0.00375|
|     Spec. Dissipation|   6.56779e+06|       510.446|       1/s|       12866.8|
+------------------------------------------------------------------------------+
|           Mach Number|             -|             -|         -|           1.5|
|       Reynolds Number|             -|             -|         -|   1.71557e+08|
+------------------------------------------------------------------------------+
Initialize Jacobian structure (Navier-Stokes). MG level: 0.
Initialize Jacobian structure (SA model).

------------------- Numerics Preprocessing ( Zone 0 ) -------------------

----------------- Integration Preprocessing ( Zone 0 ) ------------------

------------------- Iteration Preprocessing ( Zone 0 ) ------------------
Euler/Navier-Stokes/RANS fluid iteration.

------------------------------ Begin Solver -----------------------------

Simulation Run using the Single-zone Driver
WARNING: SU2 was not compiled for an AVX-capable architecture. Performance could be better,
         see https://su2code.github.io/docs_v7/Build-SU2-Linux-MacOS/#compiler-optimizations
+--------------------------------------------------------------------------------------------------------------------+
|  Inner_Iter|   Time(sec)|    rms[Rho]|   rms[RhoU]|   rms[RhoV]|   rms[RhoW]|   rms[RhoE]|     rms[nu]|          CD|
+--------------------------------------------------------------------------------------------------------------------+
|           0|  6.1638e+00|   -5.284118|  -15.937252|  -16.490601|  -16.121483|   -5.076993|  -12.301918|    1.074125|
|           1|  6.1406e+00|   -5.435585|   -5.550567|   -6.488260|   -5.695210|   -5.232470|  -12.302510|    1.608619|
|           2|  6.1278e+00|   -5.449692|   -5.611989|   -6.470324|   -5.722474|   -5.239545|  -12.554279|    2.152681|
|           3|  6.2253e+00|   -5.461880|   -5.680781|   -6.393625|   -5.751767|   -5.243755|  -12.704207|    2.728116|
|           4|  6.3353e+00|   -5.478737|   -5.750184|   -6.303986|   -5.785059|   -5.253318|  -12.800776|    3.322971|
|           5|  6.4212e+00|   -5.506849|   -5.792354|   -6.223478|   -5.821881|   -5.276623|  -12.858713|    3.887508|
|           6|  6.5336e+00|   -5.548918|   -5.774366|   -6.160497|   -5.857583|   -5.318679|  -12.883924|    4.335067|
|           7|  6.6874e+00|   -5.588515|   -5.721995|   -6.118444|   -5.875281|   -5.360962|  -12.895455|    4.536443|
|           8|  6.8178e+00|   -5.584790|   -5.688085|   -6.094058|   -5.853259|   -5.350412|  -12.892262|    4.414406|
|           9|  6.9169e+00|   -5.544204|   -5.691891|   -6.072142|   -5.811445|   -5.293160|  -12.878616|    4.020273|
|          10|  6.9945e+00|   -5.509433|   -5.723483|   -6.048569|   -5.788119|   -5.245723|  -12.864598|    3.544880|
|          11|  7.0611e+00|   -5.503756|   -5.748215|   -6.031130|   -5.793071|   -5.236158|  -12.839853|    3.197080|
|          12|  7.1124e+00|   -5.522660|   -5.742468|   -6.027714|   -5.813177|   -5.258569|  -12.812304|    3.064259|
|          13|  7.1645e+00|   -5.546261|   -5.725717|   -6.035189|   -5.830435|   -5.289532|  -12.795733|    3.110036|
|          14|  7.2102e+00|   -5.558326|   -5.725642|   -6.048256|   -5.837520|   -5.305762|  -12.785412|    3.254004|
|          15|  7.2471e+00|   -5.559039|   -5.749733|   -6.060086|   -5.840166|   -5.305171|  -12.772576|    3.418101|
|          16|  7.2774e+00|   -5.559642|   -5.774623|   -6.066041|   -5.844766|   -5.304733|  -12.757098|    3.551752|
|          17|  7.3030e+00|   -5.564233|   -5.776642|   -6.066351|   -5.848805|   -5.311177|  -12.741741|    3.638132|
|          18|  7.3294e+00|   -5.568787|   -5.766957|   -6.066126|   -5.849547|   -5.317984|  -12.731629|    3.685216|
|          19|  7.3547e+00|   -5.569463|   -5.768400|   -6.067833|   -5.848442|   -5.318576|  -12.723670|    3.711679|
|          20|  7.3768e+00|   -5.567877|   -5.781045|   -6.069431|   -5.848713|   -5.315891|  -12.715622|    3.733157|
|          21|  7.3964e+00|   -5.567537|   -5.787190|   -6.068160|   -5.850683|   -5.315525|  -12.705999|    3.755786|
|          22|  7.4190e+00|   -5.568235|   -5.779392|   -6.065394|   -5.851302|   -5.317106|  -12.696824|    3.778002|
|          23|  7.4338e+00|   -5.567954|   -5.770387|   -6.063505|   -5.849782|   -5.317052|  -12.689392|    3.795842|
|          24|  7.4493e+00|   -5.565520|   -5.771275|   -6.062956|   -5.847934|   -5.313380|  -12.684106|    3.807118|
|          25|  7.4633e+00|   -5.562879|   -5.777736|   -6.061965|   -5.847552|   -5.309534|  -12.678370|    3.812729|
|          26|  7.4777e+00|   -5.562041|   -5.778356|   -6.059786|   -5.847925|   -5.308567|  -12.671988|    3.815540|
|          27|  7.4893e+00|   -5.561713|   -5.770301|   -6.057021|   -5.847091|   -5.308747|  -12.665681|    3.818390|
|          28|  7.5023e+00|   -5.560773|   -5.763545|   -6.055342|   -5.845063|   -5.307794|  -12.659703|    3.822724|
|          29|  7.5152e+00|   -5.558187|   -5.763998|   -6.054423|   -5.843298|   -5.304127|  -12.656733|    3.828425|
|          30|  7.5278e+00|   -5.556066|   -5.767688|   -6.053361|   -5.842778|   -5.301184|  -12.652493|    3.834519|
|          31|  7.5403e+00|   -5.555319|   -5.766115|   -6.051507|   -5.842540|   -5.300365|  -12.649408|    3.840029|
|          32|  7.5490e+00|   -5.555030|   -5.758985|   -6.049637|   -5.841124|   -5.300546|  -12.644260|    3.844502|
|          33|  7.5576e+00|   -5.553739|   -5.753309|   -6.048273|   -5.838495|   -5.299150|  -12.640207|    3.848068|
|          34|  7.5637e+00|   -5.551304|   -5.752519|   -6.047492|   -5.836156|   -5.295882|  -12.637618|    3.851183|
|          35|  7.5700e+00|   -5.549362|   -5.752783|   -6.046254|   -5.834132|   -5.293297|  -12.634564|    3.854286|
|          36|  7.5765e+00|   -5.548036|   -5.747636|   -6.044342|   -5.831437|   -5.291772|  -12.631527|    3.857586|
|          37|  7.5807e+00|   -5.546562|   -5.737814|   -6.042175|   -5.826335|   -5.290323|  -12.626661|    3.861027|
|          38|  7.5851e+00|   -5.543717|   -5.727579|   -6.040020|   -5.819064|   -5.286854|  -12.620733|    3.864410|
|          39|  7.5892e+00|   -5.539176|   -5.717883|   -6.037344|   -5.809871|   -5.280928|  -12.615939|    3.867539|
|          40|  7.5922e+00|   -5.534442|   -5.705691|   -6.033692|   -5.798546|   -5.274767|  -12.608548|    3.870327|
|          41|  7.5969e+00|   -5.528631|   -5.686519|   -6.028321|   -5.783626|   -5.267478|  -12.600714|    3.872807|
|          42|  7.5982e+00|   -5.521421|   -5.662062|   -6.021735|   -5.764488|   -5.258741|  -12.589165|    3.875081|
|          43|  7.6035e+00|   -5.511559|   -5.634965|   -6.013440|   -5.741612|   -5.246713|  -12.575918|    3.877245|
|          44|  7.6170e+00|   -5.499183|   -5.606248|   -6.003242|   -5.715951|   -5.231783|  -12.561531|    3.879344|
|          45|  7.6295e+00|   -5.485297|   -5.575292|   -5.990763|   -5.688130|   -5.215475|  -12.545197|    3.881367|
|          46|  7.6415e+00|   -5.469738|   -5.541547|   -5.975960|   -5.658534|   -5.197864|  -12.527608|    3.883276|
|          47|  7.6431e+00|   -5.452595|   -5.506939|   -5.959373|   -5.627956|   -5.179131|  -12.508128|    3.885039|
|          48|  7.6562e+00|   -5.433706|   -5.473216|   -5.941079|   -5.597394|   -5.158957|  -12.488155|    3.886649|
|          49|  7.6711e+00|   -5.413927|   -5.441234|   -5.921739|   -5.567852|   -5.138357|  -12.468262|    3.888123|
|          50|  7.6833e+00|   -5.394035|   -5.410863|   -5.901433|   -5.539751|   -5.118280|  -12.449069|    3.889490|
|          51|  7.6850e+00|   -5.374596|   -5.382108|   -5.880936|   -5.513453|   -5.099361|  -12.430234|    3.890774|
|          52|  7.6882e+00|   -5.355575|   -5.355418|   -5.860472|   -5.489069|   -5.081426|  -12.412433|    3.891985|
|          53|  7.6897e+00|   -5.337313|   -5.331395|   -5.840652|   -5.466970|   -5.064653|  -12.395574|    3.893123|
|          54|  7.6910e+00|   -5.320088|   -5.310073|   -5.821637|   -5.447218|   -5.049239|  -12.380413|    3.894181|
|          55|  7.6949e+00|   -5.304346|   -5.291196|   -5.803668|   -5.429862|   -5.035645|  -12.366835|    3.895155|
|          56|  7.7061e+00|   -5.290167|   -5.274493|   -5.786840|   -5.414721|   -5.023908|  -12.354697|    3.896046|
|          57|  7.7137e+00|   -5.277444|   -5.259972|   -5.771305|   -5.401710|   -5.013789|  -12.344015|    3.896861|
|          58|  7.7211e+00|   -5.266117|   -5.247709|   -5.757080|   -5.390710|   -5.005100|  -12.334734|    3.897607|
|          59|  7.7283e+00|   -5.256261|   -5.237586|   -5.744237|   -5.381653|   -4.997859|  -12.326875|    3.898292|
|          60|  7.7369e+00|   -5.247853|   -5.229251|   -5.732566|   -5.374326|   -4.992042|  -12.320607|    3.898919|
|          61|  7.7447e+00|   -5.240924|   -5.222485|   -5.722149|   -5.368573|   -4.987688|  -12.315286|    3.899489|
|          62|  7.7518e+00|   -5.235143|   -5.217144|   -5.712789|   -5.364161|   -4.984347|  -12.311278|    3.900002|
|          63|  7.7590e+00|   -5.230508|   -5.213261|   -5.704556|   -5.360998|   -4.981991|  -12.307948|    3.900459|
|          64|  7.7656e+00|   -5.226834|   -5.210625|   -5.697228|   -5.358918|   -4.980380|  -12.305788|    3.900862|
|          65|  7.7724e+00|   -5.224190|   -5.209022|   -5.690773|   -5.357799|   -4.979658|  -12.304355|    3.901213|
|          66|  7.7780e+00|   -5.222403|   -5.208236|   -5.685048|   -5.357460|   -4.979636|  -12.303612|    3.901515|
|          67|  7.7846e+00|   -5.221318|   -5.208212|   -5.680022|   -5.357770|   -4.980126|  -12.303414|    3.901772|
|          68|  7.7907e+00|   -5.220828|   -5.208936|   -5.675596|   -5.358631|   -4.981001|  -12.303590|    3.901984|
|          69|  7.7952e+00|   -5.220854|   -5.210278|   -5.671700|   -5.359968|   -4.982186|  -12.304288|    3.902153|
|          70|  7.8002e+00|   -5.221395|   -5.212077|   -5.668228|   -5.361684|   -4.983746|  -12.305315|    3.902281|
|          71|  7.8061e+00|   -5.222343|   -5.214206|   -5.665158|   -5.363685|   -4.985580|  -12.306569|    3.902367|
|          72|  7.8106e+00|   -5.223588|   -5.216663|   -5.662412|   -5.365886|   -4.987556|  -12.307985|    3.902413|
|          73|  7.8161e+00|   -5.225055|   -5.219444|   -5.659983|   -5.368251|   -4.989608|  -12.309490|    3.902421|
|          74|  7.8161e+00|   -5.226717|   -5.222483|   -5.657784|   -5.370746|   -4.991723|  -12.311097|    3.902392|
|          75|  7.8157e+00|   -5.228556|   -5.225657|   -5.655790|   -5.373315|   -4.993934|  -12.312808|    3.902328|
|          76|  7.8149e+00|   -5.230514|   -5.228904|   -5.653970|   -5.375919|   -4.996209|  -12.314411|    3.902229|
|          77|  7.8131e+00|   -5.232491|   -5.232238|   -5.652298|   -5.378502|   -4.998406|  -12.315975|    3.902097|
|          78|  7.8144e+00|   -5.234461|   -5.235675|   -5.650778|   -5.381073|   -5.000533|  -12.317444|    3.901933|
|          79|  7.8149e+00|   -5.236421|   -5.239190|   -5.649356|   -5.383606|   -5.002592|  -12.318755|    3.901737|
|          80|  7.8155e+00|   -5.238350|   -5.242665|   -5.648039|   -5.386096|   -5.004600|  -12.320114|    3.901511|
|          81|  7.8170e+00|   -5.240251|   -5.246101|   -5.646791|   -5.388496|   -5.006601|  -12.321137|    3.901255|
|          82|  7.8170e+00|   -5.242003|   -5.249495|   -5.645619|   -5.390813|   -5.008395|  -12.322068|    3.900971|
|          83|  7.8164e+00|   -5.243632|   -5.252886|   -5.644495|   -5.393025|   -5.010062|  -12.322851|    3.900659|
|          84|  7.8157e+00|   -5.245166|   -5.256258|   -5.643412|   -5.395154|   -5.011621|  -12.323303|    3.900321|
|          85|  7.8152e+00|   -5.246535|   -5.259477|   -5.642327|   -5.397172|   -5.013009|  -12.323933|    3.899955|
|          86|  7.8103e+00|   -5.247863|   -5.262628|   -5.641249|   -5.399076|   -5.014422|  -12.324000|    3.899564|
|          87|  7.8058e+00|   -5.248936|   -5.265650|   -5.640144|   -5.400864|   -5.015510|  -12.324104|    3.899147|
|          88|  7.8011e+00|   -5.249894|   -5.268625|   -5.639013|   -5.402519|   -5.016524|  -12.323968|    3.898704|
|          89|  7.7965e+00|   -5.250704|   -5.271522|   -5.637847|   -5.404080|   -5.017387|  -12.323463|    3.898236|
|          90|  7.7918e+00|   -5.251303|   -5.274207|   -5.636609|   -5.405511|   -5.018047|  -12.323166|    3.897741|
|          91|  7.7874e+00|   -5.251846|   -5.276815|   -5.635346|   -5.406826|   -5.018746|  -12.322172|    3.897221|
|          92|  7.7827e+00|   -5.252063|   -5.279247|   -5.634011|   -5.408006|   -5.019050|  -12.321288|    3.896674|
|          93|  7.7777e+00|   -5.252151|   -5.281616|   -5.632642|   -5.409037|   -5.019314|  -12.320094|    3.896099|
|          94|  7.7740e+00|   -5.252034|   -5.283885|   -5.631228|   -5.409935|   -5.019391|  -12.318455|    3.895495|
|          95|  7.7703e+00|   -5.251643|   -5.285916|   -5.629741|   -5.410639|   -5.019214|  -12.317010|    3.894861|
|          96|  7.7649e+00|   -5.251127|   -5.287863|   -5.628228|   -5.411151|   -5.019034|  -12.314836|    3.894195|
|          97|  7.7609e+00|   -5.250213|   -5.289625|   -5.626645|   -5.411442|   -5.018403|  -12.312646|    3.893494|
|          98|  7.7566e+00|   -5.249081|   -5.291295|   -5.625022|   -5.411470|   -5.017649|  -12.310226|    3.892758|
|          99|  7.7530e+00|   -5.247681|   -5.292885|   -5.623359|   -5.411240|   -5.016685|  -12.307193|    3.891983|
|         100|  7.7493e+00|   -5.245906|   -5.294224|   -5.621628|   -5.410690|   -5.015356|  -12.304321|    3.891167|
|         101|  7.7411e+00|   -5.243919|   -5.295470|   -5.619873|   -5.409789|   -5.013969|  -12.300822|    3.890307|
|         102|  7.7332e+00|   -5.241462|   -5.296565|   -5.618056|   -5.408508|   -5.012088|  -12.296963|    3.889400|
|         103|  7.7015e+00|   -5.238620|   -5.297508|   -5.616190|   -5.406765|   -5.009871|  -12.300223|    3.889377|
|         104|  7.6704e+00|   -5.238083|   -5.297433|   -5.615961|   -5.406542|   -5.009320|  -12.299480|    3.889350|
|         105|  7.6393e+00|   -5.237453|   -5.297339|   -5.615688|   -5.406279|   -5.008676|  -12.298603|    3.889316|
|         106|  7.6129e+00|   -5.236718|   -5.297219|   -5.615364|   -5.405970|   -5.007931|  -12.297575|    3.889275|
|         107|  7.5868e+00|   -5.235867|   -5.297065|   -5.614977|   -5.405608|   -5.007077|  -12.296375|    3.889226|
|         108|  7.5612e+00|   -5.234891|   -5.296863|   -5.614519|   -5.405187|   -5.006110|  -12.294985|    3.889166|
|         109|  7.5363e+00|   -5.233787|   -5.296595|   -5.613977|   -5.404701|   -5.005034|  -12.293390|    3.889092|
|         110|  7.5120e+00|   -5.232558|   -5.296236|   -5.613339|   -5.404144|   -5.003861|  -12.291584|    3.889001|
|         111|  7.4881e+00|   -5.231220|   -5.295748|   -5.612591|   -5.403513|   -5.002621|  -12.289569|    3.888889|
|         112|  7.4682e+00|   -5.229805|   -5.295090|   -5.611721|   -5.402807|   -5.001362|  -12.287369|    3.888750|
|         113|  7.4489e+00|   -5.228359|   -5.294212|   -5.610719|   -5.402025|   -5.000149|  -12.285058|    3.888577|
|         114|  7.4294e+00|   -5.226935|   -5.293084|   -5.609583|   -5.401165|   -4.999053|  -12.282714|    3.888360|
|         115|  7.4138e+00|   -5.225552|   -5.291715|   -5.608314|   -5.400217|   -4.998100|  -12.280353|    3.888087|
|         116|  7.3987e+00|   -5.224132|   -5.290196|   -5.606921|   -5.399142|   -4.997168|  -12.277786|    3.887741|
|         117|  7.3839e+00|   -5.222394|   -5.288700|   -5.605403|   -5.397846|   -4.995822|  -12.274471|    3.887304|
|         118|  7.3725e+00|   -5.219811|   -5.287450|   -5.603740|   -5.396154|   -4.993239|  -12.269863|    3.886752|
|         119|  7.3615e+00|   -5.215837|   -5.286735|   -5.601905|   -5.393807|   -4.988629|  -12.264395|    3.886058|
|         120|  7.3548e+00|   -5.210594|   -5.286892|   -5.599947|   -5.390588|   -4.982381|  -12.259449|    3.885186|
|         121|  7.3513e+00|   -5.205059|   -5.288089|   -5.598099|   -5.386422|   -4.976220|  -12.255135|    3.884091|
|         122|  7.3477e+00|   -5.200010|   -5.290029|   -5.596626|   -5.381306|   -4.971260|  -12.250639|    3.882801|
|         123|  7.3438e+00|   -5.195253|   -5.292118|   -5.595397|   -5.375363|   -4.967101|  -12.246469|    3.881460|
|         124|  7.3408e+00|   -5.190808|   -5.293463|   -5.593914|   -5.368887|   -4.963739|  -12.242169|    3.880057|
|         125|  7.3375e+00|   -5.186748|   -5.293807|   -5.592079|   -5.361950|   -4.961383|  -12.236628|    3.878579|
|         126|  7.3341e+00|   -5.181973|   -5.293149|   -5.589766|   -5.354518|   -4.958373|  -12.229361|    3.877020|
|         127|  7.3311e+00|   -5.175818|   -5.292153|   -5.586946|   -5.346421|   -4.953673|  -12.220935|    3.875376|
|         128|  7.3283e+00|   -5.168348|   -5.291505|   -5.583639|   -5.337420|   -4.947393|  -12.211076|    3.873645|
|         129|  7.3249e+00|   -5.159489|   -5.291046|   -5.579785|   -5.327434|   -4.939371|  -12.200186|    3.871826|
|         130|  7.3223e+00|   -5.149585|   -5.290224|   -5.575394|   -5.316547|   -4.930129|  -12.189477|    3.869921|
|         131|  7.3187e+00|   -5.139296|   -5.288646|   -5.570511|   -5.304860|   -4.920710|  -12.178520|    3.867934|
|         132|  7.3162e+00|   -5.128515|   -5.286224|   -5.565092|   -5.292474|   -4.910874|  -12.166639|    3.865874|
|         133|  7.3132e+00|   -5.116845|   -5.283141|   -5.559059|   -5.279491|   -4.899946|  -12.154383|    3.863754|
|         134|  7.3109e+00|   -5.104434|   -5.279755|   -5.552393|   -5.265952|   -4.888150|  -12.141596|    3.861592|
|         135|  7.3081e+00|   -5.091330|   -5.276001|   -5.545018|   -5.251909|   -4.875478|  -12.127918|    3.859409|
|         136|  7.3055e+00|   -5.077566|   -5.271625|   -5.536876|   -5.237462|   -4.861938|  -12.113976|    3.857232|
|         137|  7.3029e+00|   -5.063466|   -5.266558|   -5.527992|   -5.222722|   -4.848089|  -12.099972|    3.855081|
|         138|  7.3008e+00|   -5.049155|   -5.260691|   -5.518330|   -5.207783|   -4.834092|  -12.085377|    3.852975|
|         139|  7.2955e+00|   -5.034393|   -5.253928|   -5.507829|   -5.192711|   -4.819494|  -12.070325|    3.850915|
|         140|  7.2902e+00|   -5.019173|   -5.246584|   -5.496516|   -5.177556|   -4.804295|  -12.055227|    3.848889|
|         141|  7.2849e+00|   -5.003662|   -5.238829|   -5.484473|   -5.162406|   -4.788739|  -12.039919|    3.846859|
|         142|  7.2795e+00|   -4.987886|   -5.230377|   -5.471745|   -5.147311|   -4.772767|  -12.024337|    3.844764|
|         143|  7.2745e+00|   -4.971954|   -5.221091|   -5.458436|   -5.132396|   -4.756502|  -12.008957|    3.842522|
|         144|  7.2693e+00|   -4.956071|   -5.211129|   -5.444651|   -5.117764|   -4.740302|  -11.993787|    3.840033|
|         145|  7.2641e+00|   -4.940284|   -5.200505|   -5.430471|   -5.103493|   -4.724243|  -11.978540|    3.837189|
|         146|  7.2589e+00|   -4.924535|   -5.189068|   -5.415927|   -5.089629|   -4.708147|  -11.963159|    3.833886|
|         147|  7.2540e+00|   -4.908825|   -5.176987|   -5.401112|   -5.076197|   -4.692020|  -11.947962|    3.830037|
|         148|  7.2495e+00|   -4.893180|   -5.164583|   -5.386079|   -5.063162|   -4.675973|  -11.932956|    3.825585|
|         149|  7.2458e+00|   -4.877599|   -5.151854|   -5.370842|   -5.050492|   -4.659977|  -11.918060|    3.820506|
|         150|  7.2411e+00|   -4.862088|   -5.138569|   -5.355398|   -5.038192|   -4.643953|  -11.903278|    3.814819|
+-----------------------------------------------------------------------+
|        File Writing Summary       |              Filename             |
+-----------------------------------------------------------------------+
|SU2 binary restart                 |restart_flow.dat                   |
|Paraview                           |flow.vtu                           |
|Paraview surface                   |surface_flow.vtu                   |
+-----------------------------------------------------------------------+
+--------------------------------------------------------------------------------------------------------------------+
|  Inner_Iter|   Time(sec)|    rms[Rho]|   rms[RhoU]|   rms[RhoV]|   rms[RhoW]|   rms[RhoE]|     rms[nu]|          CD|
+--------------------------------------------------------------------------------------------------------------------+
|         151|  7.3823e+00|   -4.846703|   -5.124687|   -5.339789|   -5.026278|   -4.627973|  -11.888788|    3.808582|
|         152|  7.3640e+00|   -4.831508|   -5.110351|   -5.324046|   -5.014738|   -4.612157|  -11.903517|    3.808384|
|         153|  7.3454e+00|   -4.830627|   -5.109819|   -5.323319|   -5.014057|   -4.611326|  -11.902147|    3.808145|
|         154|  7.3269e+00|   -4.829584|   -5.109168|   -5.322446|   -5.013248|   -4.610344|  -11.900525|    3.807856|
|         155|  7.3110e+00|   -4.828350|   -5.108368|   -5.321400|   -5.012292|   -4.609184|  -11.898609|    3.807508|
|         156|  7.2953e+00|   -4.826896|   -5.107382|   -5.320145|   -5.011164|   -4.607820|  -11.896351|    3.807085|
|         157|  7.2797e+00|   -4.825188|   -5.106161|   -5.318640|   -5.009839|   -4.606223|  -11.893702|    3.806573|
|         158|  7.2641e+00|   -4.823191|   -5.104642|   -5.316837|   -5.008289|   -4.604361|  -11.890610|    3.805952|
|         159|  7.2490e+00|   -4.820869|   -5.102743|   -5.314678|   -5.006485|   -4.602204|  -11.887019|    3.805196|
|         160|  7.2343e+00|   -4.818185|   -5.100359|   -5.312097|   -5.004398|   -4.599719|  -11.882876|    3.804274|
|         161|  7.2221e+00|   -4.815102|   -5.097355|   -5.309012|   -5.002001|   -4.596876|  -11.878130|    3.803148|
|         162|  7.2101e+00|   -4.811591|   -5.093566|   -5.305335|   -4.999274|   -4.593647|  -11.872740|    3.801770|
|         163|  7.1982e+00|   -4.807624|   -5.088797|   -5.300969|   -4.996201|   -4.590003|  -11.866668|    3.800081|
|         164|  7.1862e+00|   -4.803161|   -5.082828|   -5.295804|   -4.992760|   -4.585889|  -11.859881|    3.798008|
|         165|  7.1772e+00|   -4.798147|   -5.075453|   -5.289719|   -4.988928|   -4.581207|  -11.852336|    3.795463|
|         166|  7.1683e+00|   -4.792478|   -5.066543|   -5.282600|   -4.984656|   -4.575770|  -11.843954|    3.792341|
|         167|  7.1593e+00|   -4.785954|   -5.056139|   -5.274341|   -4.979835|   -4.569240|  -11.834613|    3.788524|
|         168|  7.1532e+00|   -4.778252|   -5.044544|   -5.264865|   -4.974283|   -4.561092|  -11.824129|    3.783885|
|         169|  7.1471e+00|   -4.768913|   -5.032363|   -5.254127|   -4.967715|   -4.550643|  -11.812327|    3.778304|
|         170|  7.1432e+00|   -4.757443|   -5.020371|   -5.242070|   -4.959807|   -4.537223|  -11.799205|    3.771685|
|         171|  7.1396e+00|   -4.743605|   -5.009226|   -5.228664|   -4.950428|   -4.520679|  -11.786302|    3.764434|
|         172|  7.1360e+00|   -4.728329|   -4.999477|   -5.214487|   -4.940231|   -4.502637|  -11.775501|    3.757461|
|         173|  7.1330e+00|   -4.713682|   -4.990668|   -5.200622|   -4.930626|   -4.486117|  -11.764983|    3.750788|
|         174|  7.1299e+00|   -4.700514|   -4.980519|   -5.186914|   -4.922286|   -4.472044|  -11.754750|    3.744407|
|         175|  7.1266e+00|   -4.688901|   -4.968081|   -5.173346|   -4.915314|   -4.460298|  -11.744615|    3.738287|
|         176|  7.1232e+00|   -4.678405|   -4.953876|   -5.160016|   -4.909436|   -4.450090|  -11.734304|    3.732381|
|         177|  7.1197e+00|   -4.668374|   -4.939190|   -5.147033|   -4.904189|   -4.440426|  -11.723615|    3.726636|
|         178|  7.1164e+00|   -4.658241|   -4.925137|   -5.134420|   -4.899143|   -4.430499|  -11.712655|    3.721001|
|         179|  7.1129e+00|   -4.647754|   -4.912150|   -5.122129|   -4.894006|   -4.419926|  -11.701731|    3.715427|
|         180|  7.1096e+00|   -4.637011|   -4.900115|   -5.110081|   -4.888706|   -4.408849|  -11.691179|    3.709873|
|         181|  7.1062e+00|   -4.626330|   -4.888731|   -5.098266|   -4.883392|   -4.397752|  -11.681168|    3.704310|
|         182|  7.1028e+00|   -4.615899|   -4.877625|   -5.086706|   -4.878209|   -4.386951|  -11.671562|    3.698718|
|         183|  7.0993e+00|   -4.605750|   -4.866418|   -5.075350|   -4.873255|   -4.376469|  -11.662322|    3.693086|
|         184|  7.0961e+00|   -4.595864|   -4.854964|   -5.064183|   -4.868573|   -4.366233|  -11.653346|    3.687408|
|         185|  7.0928e+00|   -4.586216|   -4.843479|   -5.053212|   -4.864160|   -4.356214|  -11.644590|    3.681686|
|         186|  7.0895e+00|   -4.576783|   -4.832350|   -5.042486|   -4.859896|   -4.346407|  -11.636078|    3.675924|
|         187|  7.0864e+00|   -4.567625|   -4.821887|   -5.032056|   -4.855659|   -4.336863|  -11.627871|    3.670126|
|         188|  7.0836e+00|   -4.558879|   -4.812132|   -5.022022|   -4.851431|   -4.327713|  -11.620068|    3.664299|
|         189|  7.0807e+00|   -4.550694|   -4.803015|   -5.012469|   -4.847260|   -4.319134|  -11.612889|    3.658447|
|         190|  7.0774e+00|   -4.543158|   -4.794576|   -5.003514|   -4.843209|   -4.311272|  -11.606252|    3.652574|
|         191|  7.0748e+00|   -4.536252|   -4.786971|   -4.995177|   -4.839247|   -4.304135|  -11.600016|    3.646684|
|         192|  7.0721e+00|   -4.529889|   -4.780275|   -4.987359|   -4.835300|   -4.297610|  -11.594073|    3.640779|
|         193|  7.0697e+00|   -4.524035|   -4.774421|   -4.979952|   -4.831359|   -4.291625|  -11.588615|    3.634862|
|         194|  7.0670e+00|   -4.518732|   -4.769353|   -4.972877|   -4.827467|   -4.286225|  -11.583887|    3.628939|
|         195|  7.0647e+00|   -4.514061|   -4.765167|   -4.966215|   -4.823723|   -4.281560|  -11.579749|    3.623015|
|         196|  7.0619e+00|   -4.509937|   -4.761849|   -4.959982|   -4.820131|   -4.277557|  -11.575925|    3.617101|
|         197|  7.0595e+00|   -4.506283|   -4.759288|   -4.954076|   -4.816661|   -4.274116|  -11.572223|    3.611207|
|         198|  7.0569e+00|   -4.502968|   -4.757296|   -4.948426|   -4.813222|   -4.271070|  -11.568826|    3.605349|
|         199|  7.0543e+00|   -4.499927|   -4.755724|   -4.943027|   -4.809752|   -4.268315|  -11.565738|    3.599544|
|         200|  7.0411e+00|   -4.497186|   -4.754511|   -4.937886|   -4.806257|   -4.265888|  -11.582058|    3.599356|
|         201|  7.0286e+00|   -4.496657|   -4.754586|   -4.937525|   -4.805852|   -4.265484|  -11.580991|    3.599130|
|         202|  7.0158e+00|   -4.496043|   -4.754660|   -4.937095|   -4.805375|   -4.265021|  -11.579739|    3.598859|
|         203|  7.0051e+00|   -4.495334|   -4.754726|   -4.936582|   -4.804817|   -4.264495|  -11.578280|    3.598534|
|         204|  6.9949e+00|   -4.494522|   -4.754768|   -4.935973|   -4.804168|   -4.263906|  -11.576589|    3.598144|
|         205|  6.9844e+00|   -4.493603|   -4.754767|   -4.935247|   -4.803417|   -4.263258|  -11.574647|    3.597676|
|         206|  6.9741e+00|   -4.492581|   -4.754691|   -4.934386|   -4.802557|   -4.262566|  -11.572440|    3.597113|
|         207|  6.9641e+00|   -4.491465|   -4.754493|   -4.933368|   -4.801581|   -4.261852|  -11.569964|    3.596438|
|         208|  6.9540e+00|   -4.490281|   -4.754103|   -4.932166|   -4.800487|   -4.261154|  -11.567231|    3.595628|
|         209|  6.9460e+00|   -4.489068|   -4.753422|   -4.930752|   -4.799280|   -4.260525|  -11.564275|    3.594654|
|         210|  6.9382e+00|   -4.487889|   -4.752324|   -4.929099|   -4.797970|   -4.260039|  -11.561162|    3.593484|
|         211|  6.9303e+00|   -4.486826|   -4.750661|   -4.927179|   -4.796576|   -4.259786|  -11.557970|    3.592078|
|         212|  6.9222e+00|   -4.485975|   -4.748289|   -4.924974|   -4.795119|   -4.259853|  -11.554788|    3.590390|
|         213|  6.9163e+00|   -4.485418|   -4.745112|   -4.922472|   -4.793615|   -4.260279|  -11.551681|    3.588364|
|         214|  6.9106e+00|   -4.485173|   -4.741180|   -4.919687|   -4.792051|   -4.260989|  -11.548634|    3.585939|
|         215|  6.9049e+00|   -4.485093|   -4.736775|   -4.916645|   -4.790343|   -4.261644|  -11.545520|    3.583046|
|         216|  6.9011e+00|   -4.484790|   -4.732505|   -4.913416|   -4.788319|   -4.261556|  -11.542131|    3.579609|
|         217|  6.8970e+00|   -4.483651|   -4.729342|   -4.910094|   -4.785712|   -4.259776|  -11.538245|    3.575556|
|         218|  6.8949e+00|   -4.481087|   -4.728472|   -4.906802|   -4.782287|   -4.255523|  -11.534176|    3.570808|
|         219|  6.8932e+00|   -4.476996|   -4.730856|   -4.903599|   -4.778001|   -4.248899|  -11.531847|    3.565617|
|         220|  6.8910e+00|   -4.472316|   -4.736495|   -4.900636|   -4.773379|   -4.241798|  -11.532711|    3.560583|
|         221|  6.8890e+00|   -4.468639|   -4.743430|   -4.898006|   -4.769324|   -4.236949|  -11.534516|    3.555677|
|         222|  6.8874e+00|   -4.467038|   -4.748638|   -4.895586|   -4.766376|   -4.235413|  -11.536770|    3.550864|
|         223|  6.8857e+00|   -4.467542|   -4.750589|   -4.893261|   -4.764579|   -4.236869|  -11.538799|    3.546099|
|         224|  6.8835e+00|   -4.469481|   -4.749832|   -4.891043|   -4.763665|   -4.240203|  -11.539992|    3.541332|
|         225|  6.8818e+00|   -4.471983|   -4.748396|   -4.889039|   -4.763215|   -4.244197|  -11.540109|    3.536510|
|         226|  6.8801e+00|   -4.474258|   -4.748131|   -4.887331|   -4.762824|   -4.247817|  -11.539244|    3.531577|
|         227|  6.8784e+00|   -4.475877|   -4.749770|   -4.885881|   -4.762218|   -4.250508|  -11.537785|    3.526475|
|         228|  6.8768e+00|   -4.476771|   -4.752880|   -4.884571|   -4.761240|   -4.252194|  -11.536299|    3.521146|
|         229|  6.8754e+00|   -4.477163|   -4.756482|   -4.883289|   -4.759913|   -4.253197|  -11.535278|    3.515539|
|         230|  6.8745e+00|   -4.477337|   -4.759514|   -4.881974|   -4.758334|   -4.253890|  -11.534849|    3.509608|
|         231|  6.8729e+00|   -4.477502|   -4.761254|   -4.880601|   -4.756625|   -4.254528|  -11.534806|    3.503319|
|         232|  6.8715e+00|   -4.477772|   -4.761589|   -4.879119|   -4.754886|   -4.255242|  -11.534878|    3.496650|
|         233|  6.8701e+00|   -4.478165|   -4.760908|   -4.877508|   -4.753118|   -4.256066|  -11.534853|    3.489592|
|         234|  6.8691e+00|   -4.478615|   -4.759743|   -4.875768|   -4.751225|   -4.256939|  -11.534673|    3.482147|
|         235|  6.8679e+00|   -4.478983|   -4.758428|   -4.873912|   -4.749098|   -4.257700|  -11.534289|    3.474328|
|         236|  6.8663e+00|   -4.479158|   -4.756963|   -4.871975|   -4.746685|   -4.258209|  -11.533670|    3.466156|
|         237|  6.8651e+00|   -4.479059|   -4.754991|   -4.869915|   -4.743944|   -4.258332|  -11.532891|    3.457654|
|         238|  6.8635e+00|   -4.478742|   -4.752216|   -4.867715|   -4.740876|   -4.258132|  -11.532035|    3.448849|
|         239|  6.8619e+00|   -4.478298|   -4.748497|   -4.865357|   -4.737471|   -4.257730|  -11.531116|    3.439767|
|         240|  6.8606e+00|   -4.477797|   -4.743864|   -4.862802|   -4.733688|   -4.257231|  -11.530121|    3.430429|
|         241|  6.8592e+00|   -4.477241|   -4.738332|   -4.860036|   -4.729505|   -4.256637|  -11.529056|    3.420851|
|         242|  6.8580e+00|   -4.476604|   -4.731913|   -4.857031|   -4.724942|   -4.255907|  -11.527825|    3.411045|
|         243|  6.8565e+00|   -4.475825|   -4.724652|   -4.853758|   -4.719985|   -4.254963|  -11.526352|    3.401017|
|         244|  6.8550e+00|   -4.474869|   -4.716648|   -4.850227|   -4.714624|   -4.253783|  -11.524607|    3.390766|
|         245|  6.8540e+00|   -4.473718|   -4.707987|   -4.846473|   -4.708815|   -4.252360|  -11.522604|    3.380287|
|         246|  6.8528e+00|   -4.472338|   -4.698665|   -4.842504|   -4.702551|   -4.250651|  -11.520331|    3.369571|
|         247|  6.8516e+00|   -4.470745|   -4.688741|   -4.838310|   -4.695877|   -4.248700|  -11.517814|    3.358604|
|         248|  6.8503e+00|   -4.468959|   -4.678264|   -4.833881|   -4.688865|   -4.246564|  -11.515031|    3.347374|
|         249|  6.8488e+00|   -4.466980|   -4.667301|   -4.829212|   -4.681558|   -4.244282|  -11.511933|    3.335866|
|         250|  6.8476e+00|   -4.464759|   -4.655917|   -4.824276|   -4.673982|   -4.241828|  -11.508530|    3.324066|
|         251|  6.8462e+00|   -4.462255|   -4.644206|   -4.819124|   -4.666153|   -4.239184|  -11.504789|    3.311960|
|         252|  6.8448e+00|   -4.459415|   -4.632266|   -4.813794|   -4.658087|   -4.236304|  -11.500620|    3.299539|
|         253|  6.8429e+00|   -4.456201|   -4.620182|   -4.808322|   -4.649795|   -4.233144|  -11.495920|    3.286795|
|         254|  6.8414e+00|   -4.452622|   -4.608030|   -4.802762|   -4.641304|   -4.229723|  -11.490695|    3.273721|
|         255|  6.8401e+00|   -4.448711|   -4.595864|   -4.797151|   -4.632665|   -4.226080|  -11.485007|    3.260316|
|         256|  6.8388e+00|   -4.444540|   -4.583755|   -4.791525|   -4.623955|   -4.222309|  -11.478953|    3.246581|
|         257|  6.8375e+00|   -4.440135|   -4.571768|   -4.785917|   -4.615244|   -4.218446|  -11.472488|    3.232518|
|         258|  6.8362e+00|   -4.435491|   -4.559964|   -4.780345|   -4.606588|   -4.214491|  -11.465581|    3.218135|
|         259|  6.8349e+00|   -4.430582|   -4.548397|   -4.774820|   -4.598025|   -4.210425|  -11.458184|    3.203439|
|         260|  6.8336e+00|   -4.425367|   -4.537081|   -4.769342|   -4.589562|   -4.206197|  -11.450345|    3.188442|
|         261|  6.8326e+00|   -4.419840|   -4.526016|   -4.763928|   -4.581199|   -4.201775|  -11.442158|    3.173157|
|         262|  6.8311e+00|   -4.414023|   -4.515213|   -4.758577|   -4.572932|   -4.197170|  -11.433673|    3.157598|
|         263|  6.8296e+00|   -4.407948|   -4.504682|   -4.753287|   -4.564773|   -4.192399|  -11.424939|    3.141782|
|         264|  6.8282e+00|   -4.401654|   -4.494438|   -4.748037|   -4.556741|   -4.187475|  -11.415997|    3.125726|
|         265|  6.8268e+00|   -4.395186|   -4.484506|   -4.742825|   -4.548867|   -4.182424|  -11.406896|    3.109448|
|         266|  6.8255e+00|   -4.388587|   -4.474913|   -4.737675|   -4.541177|   -4.177276|  -11.397700|    3.092967|
|         267|  6.8244e+00|   -4.381894|   -4.465679|   -4.732613|   -4.533687|   -4.172042|  -11.388488|    3.076302|
|         268|  6.8231e+00|   -4.375138|   -4.456832|   -4.727667|   -4.526407|   -4.166746|  -11.379330|    3.059471|
|         269|  6.8216e+00|   -4.368345|   -4.448390|   -4.722849|   -4.519346|   -4.161405|  -11.370281|    3.042492|
|         270|  6.8206e+00|   -4.361538|   -4.440358|   -4.718130|   -4.512521|   -4.156028|  -11.361383|    3.025385|
|         271|  6.8192e+00|   -4.354734|   -4.432728|   -4.713477|   -4.505950|   -4.150623|  -11.352678|    3.008165|
|         272|  6.8179e+00|   -4.347964|   -4.425506|   -4.708857|   -4.499652|   -4.145214|  -11.344206|    2.990848|
|         273|  6.8170e+00|   -4.341250|   -4.418710|   -4.704250|   -4.493637|   -4.139830|  -11.335982|    2.973451|
|         274|  6.8161e+00|   -4.334622|   -4.412365|   -4.699655|   -4.487904|   -4.134505|  -11.328028|    2.955986|
|         275|  6.8148e+00|   -4.328100|   -4.406489|   -4.695072|   -4.482451|   -4.129258|  -11.320385|    2.938466|
|         276|  6.8135e+00|   -4.321717|   -4.401100|   -4.690508|   -4.477300|   -4.124129|  -11.313109|    2.920902|
|         277|  6.8124e+00|   -4.315504|   -4.396218|   -4.685973|   -4.472474|   -4.119159|  -11.306245|    2.903305|
|         278|  6.8114e+00|   -4.309497|   -4.391868|   -4.681488|   -4.468009|   -4.114404|  -11.299788|    2.885682|
|         279|  6.8100e+00|   -4.303715|   -4.388076|   -4.677075|   -4.463934|   -4.109903|  -11.293727|    2.868042|
|         280|  6.8089e+00|   -4.298153|   -4.384850|   -4.672744|   -4.460264|   -4.105657|  -11.288045|    2.850391|
|         281|  6.8079e+00|   -4.292823|   -4.382193|   -4.668499|   -4.457007|   -4.101685|  -11.282757|    2.832735|
|         282|  6.8067e+00|   -4.287730|   -4.380100|   -4.664345|   -4.454166|   -4.097998|  -11.277891|    2.815081|
|         283|  6.8055e+00|   -4.282889|   -4.378568|   -4.660294|   -4.451743|   -4.094616|  -11.273444|    2.797433|
|         284|  6.8046e+00|   -4.278311|   -4.377601|   -4.656361|   -4.449741|   -4.091565|  -11.269391|    2.779796|
|         285|  6.8034e+00|   -4.274001|   -4.377198|   -4.652561|   -4.448167|   -4.088852|  -11.265725|    2.762177|
|         286|  6.8025e+00|   -4.269948|   -4.377355|   -4.648907|   -4.447030|   -4.086470|  -11.262417|    2.744581|
|         287|  6.8015e+00|   -4.266144|   -4.378065|   -4.645412|   -4.446334|   -4.084417|  -11.259469|    2.727013|
|         288|  6.8007e+00|   -4.262587|   -4.379322|   -4.642087|   -4.446078|   -4.082689|  -11.256877|    2.709480|
|         289|  6.7998e+00|   -4.259273|   -4.381098|   -4.638933|   -4.446243|   -4.081272|  -11.254617|    2.691989|
|         290|  6.7988e+00|   -4.256201|   -4.383385|   -4.635957|   -4.446831|   -4.080167|  -11.252657|    2.674547|
|         291|  6.7976e+00|   -4.253374|   -4.386126|   -4.633172|   -4.447798|   -4.079354|  -11.250983|    2.657161|
|         292|  6.7967e+00|   -4.250796|   -4.389272|   -4.630602|   -4.449117|   -4.078824|  -11.249553|    2.639840|
|         293|  6.7956e+00|   -4.248461|   -4.392767|   -4.628265|   -4.450756|   -4.078566|  -11.248317|    2.622590|
|         294|  6.7947e+00|   -4.246359|   -4.396561|   -4.626171|   -4.452677|   -4.078549|  -11.247232|    2.605421|
|         295|  6.7937e+00|   -4.244469|   -4.400601|   -4.624318|   -4.454832|   -4.078726|  -11.246290|    2.588341|
|         296|  6.7926e+00|   -4.242774|   -4.404835|   -4.622697|   -4.457191|   -4.079063|  -11.245463|    2.571358|
|         297|  6.7913e+00|   -4.241262|   -4.409185|   -4.621297|   -4.459707|   -4.079517|  -11.244714|    2.554480|
|         298|  6.7903e+00|   -4.239929|   -4.413567|   -4.620117|   -4.462335|   -4.080066|  -11.244029|    2.537715|
|         299|  6.7892e+00|   -4.238783|   -4.417919|   -4.619154|   -4.465048|   -4.080711|  -11.243408|    2.521070|
|         300|  6.7883e+00|   -4.237818|   -4.422154|   -4.618404|   -4.467801|   -4.081430|  -11.242816|    2.504552|
+-----------------------------------------------------------------------+
|        File Writing Summary       |              Filename             |
+-----------------------------------------------------------------------+
|SU2 binary restart                 |restart_flow.dat                   |
|Paraview                           |flow.vtu                           |
|Paraview surface                   |surface_flow.vtu                   |
+-----------------------------------------------------------------------+
+--------------------------------------------------------------------------------------------------------------------+
|  Inner_Iter|   Time(sec)|    rms[Rho]|   rms[RhoU]|   rms[RhoV]|   rms[RhoW]|   rms[RhoE]|     rms[nu]|          CD|
+--------------------------------------------------------------------------------------------------------------------+
|         301|  6.8604e+00|   -4.237041|   -4.426177|   -4.617871|   -4.470543|   -4.082205|  -11.242179|    2.488167|
|         302|  6.8603e+00|   -4.236427|   -4.429929|   -4.617539|   -4.473217|   -4.082994|  -11.241492|    2.471921|
|         303|  6.8595e+00|   -4.235957|   -4.433331|   -4.617387|   -4.475753|   -4.083750|  -11.240754|    2.455819|
|         304|  6.8584e+00|   -4.235618|   -4.436315|   -4.617390|   -4.478093|   -4.084434|  -11.240017|    2.439865|
|         305|  6.8576e+00|   -4.235402|   -4.438821|   -4.617526|   -4.480191|   -4.085019|  -11.239310|    2.424062|
|         306|  6.8568e+00|   -4.235314|   -4.440806|   -4.617783|   -4.482026|   -4.085507|  -11.238605|    2.408413|
|         307|  6.8556e+00|   -4.235363|   -4.442249|   -4.618151|   -4.483588|   -4.085905|  -11.237859|    2.392918|
|         308|  6.8545e+00|   -4.235551|   -4.443143|   -4.618630|   -4.484868|   -4.086220|  -11.237053|    2.377580|
|         309|  6.8536e+00|   -4.235884|   -4.443500|   -4.619228|   -4.485869|   -4.086468|  -11.236168|    2.362398|
|         310|  6.8524e+00|   -4.236358|   -4.443352|   -4.619925|   -4.486595|   -4.086646|  -11.235208|    2.347372|
|         311|  6.8511e+00|   -4.236967|   -4.442726|   -4.620720|   -4.487053|   -4.086758|  -11.234137|    2.332501|
|         312|  6.8500e+00|   -4.237713|   -4.441664|   -4.621596|   -4.487272|   -4.086816|  -11.232968|    2.317784|
|         313|  6.8488e+00|   -4.238598|   -4.440208|   -4.622553|   -4.487262|   -4.086835|  -11.231744|    2.303220|
|         314|  6.8477e+00|   -4.239614|   -4.438417|   -4.623579|   -4.487055|   -4.086827|  -11.230490|    2.288807|
|         315|  6.8467e+00|   -4.240755|   -4.436361|   -4.624670|   -4.486688|   -4.086812|  -11.229174|    2.274543|
|         316|  6.8456e+00|   -4.242013|   -4.434100|   -4.625815|   -4.486186|   -4.086799|  -11.227771|    2.260425|
|         317|  6.8445e+00|   -4.243395|   -4.431704|   -4.627032|   -4.485587|   -4.086815|  -11.226282|    2.246453|
|         318|  6.8434e+00|   -4.244888|   -4.429227|   -4.628320|   -4.484916|   -4.086861|  -11.224719|    2.232625|
|         319|  6.8424e+00|   -4.246479|   -4.426693|   -4.629669|   -4.484195|   -4.086940|  -11.223095|    2.218938|
|         320|  6.8413e+00|   -4.248170|   -4.424229|   -4.631078|   -4.483497|   -4.087103|  -11.221445|    2.205393|
|         321|  6.8401e+00|   -4.249960|   -4.421865|   -4.632551|   -4.482852|   -4.087360|  -11.219779|    2.191988|
|         322|  6.8390e+00|   -4.251842|   -4.419630|   -4.634088|   -4.482282|   -4.087718|  -11.218110|    2.178723|
|         323|  6.8379e+00|   -4.253812|   -4.417559|   -4.635692|   -4.481817|   -4.088186|  -11.216423|    2.165598|
|         324|  6.8368e+00|   -4.255867|   -4.415674|   -4.637374|   -4.481480|   -4.088775|  -11.214691|    2.152615|
|         325|  6.8357e+00|   -4.258000|   -4.413998|   -4.639134|   -4.481294|   -4.089492|  -11.212924|    2.139775|
|         326|  6.8345e+00|   -4.260193|   -4.412553|   -4.640969|   -4.481269|   -4.090338|  -11.211135|    2.127079|
|         327|  6.8335e+00|   -4.262440|   -4.411354|   -4.642879|   -4.481420|   -4.091318|  -11.209341|    2.114530|
|         328|  6.8326e+00|   -4.264732|   -4.410401|   -4.644863|   -4.481747|   -4.092426|  -11.207546|    2.102130|
|         329|  6.8317e+00|   -4.267068|   -4.409698|   -4.646916|   -4.482254|   -4.093666|  -11.205733|    2.089882|
|         330|  6.8306e+00|   -4.269451|   -4.409239|   -4.649040|   -4.482938|   -4.095038|  -11.203876|    2.077789|
|         331|  6.8296e+00|   -4.271864|   -4.409015|   -4.651217|   -4.483784|   -4.096525|  -11.201953|    2.065853|
|         332|  6.8285e+00|   -4.274294|   -4.408993|   -4.653438|   -4.484771|   -4.098103|  -11.199946|    2.054077|
|         333|  6.8276e+00|   -4.276751|   -4.409240|   -4.655692|   -4.485925|   -4.099799|  -11.197858|    2.042462|
|         334|  6.8265e+00|   -4.279234|   -4.409752|   -4.657979|   -4.487242|   -4.101615|  -11.195719|    2.031011|
|         335|  6.8253e+00|   -4.281753|   -4.410533|   -4.660305|   -4.488716|   -4.103559|  -11.193528|    2.019725|
|         336|  6.8243e+00|   -4.284310|   -4.411567|   -4.662671|   -4.490339|   -4.105627|  -11.191272|    2.008604|
|         337|  6.8233e+00|   -4.286915|   -4.412854|   -4.665067|   -4.492111|   -4.107824|  -11.188946|    1.997650|
|         338|  6.8226e+00|   -4.289562|   -4.414364|   -4.667500|   -4.494020|   -4.110136|  -11.186570|    1.986861|
|         339|  6.8214e+00|   -4.292243|   -4.416089|   -4.669954|   -4.496057|   -4.112547|  -11.184158|    1.976237|
|         340|  6.8205e+00|   -4.294948|   -4.418017|   -4.672417|   -4.498210|   -4.115043|  -11.181718|    1.965778|
|         341|  6.8197e+00|   -4.297676|   -4.420146|   -4.674881|   -4.500472|   -4.117614|  -11.179230|    1.955484|
|         342|  6.8190e+00|   -4.300428|   -4.422470|   -4.677338|   -4.502840|   -4.120261|  -11.176721|    1.945353|
|         343|  6.8182e+00|   -4.303207|   -4.424971|   -4.679785|   -4.505309|   -4.122980|  -11.174188|    1.935386|
|         344|  6.8176e+00|   -4.306015|   -4.427636|   -4.682218|   -4.507864|   -4.125768|  -11.171639|    1.925581|
|         345|  6.8168e+00|   -4.308858|   -4.430451|   -4.684634|   -4.510504|   -4.128628|  -11.169025|    1.915939|
|         346|  6.8161e+00|   -4.311748|   -4.433416|   -4.687031|   -4.513223|   -4.131572|  -11.166329|    1.906460|
|         347|  6.8154e+00|   -4.314686|   -4.436522|   -4.689410|   -4.516016|   -4.134601|  -11.163567|    1.897144|
|         348|  6.8146e+00|   -4.317677|   -4.439755|   -4.691782|   -4.518885|   -4.137714|  -11.160783|    1.887993|
|         349|  6.8137e+00|   -4.320715|   -4.443099|   -4.694156|   -4.521814|   -4.140897|  -11.157957|    1.879006|
|         350|  6.8132e+00|   -4.323791|   -4.446552|   -4.696532|   -4.524802|   -4.144147|  -11.155054|    1.870187|
|         351|  6.8124e+00|   -4.326907|   -4.450105|   -4.698911|   -4.527843|   -4.147458|  -11.152061|    1.861535|
|         352|  6.8116e+00|   -4.330053|   -4.453752|   -4.701281|   -4.530926|   -4.150821|  -11.148996|    1.853052|
|         353|  6.8108e+00|   -4.333220|   -4.457484|   -4.703627|   -4.534042|   -4.154223|  -11.145846|    1.844741|
|         354|  6.8099e+00|   -4.336401|   -4.461297|   -4.705946|   -4.537186|   -4.157660|  -11.142621|    1.836602|
|         355|  6.8094e+00|   -4.339597|   -4.465189|   -4.708240|   -4.540348|   -4.161131|  -11.139306|    1.828637|
|         356|  6.8086e+00|   -4.342795|   -4.469148|   -4.710508|   -4.543518|   -4.164621|  -11.135899|    1.820849|
|         357|  6.8079e+00|   -4.346000|   -4.473167|   -4.712763|   -4.546684|   -4.168128|  -11.132428|    1.813239|
|         358|  6.8071e+00|   -4.349214|   -4.477235|   -4.715007|   -4.549844|   -4.171653|  -11.128871|    1.805809|
|         359|  6.8063e+00|   -4.352437|   -4.481342|   -4.717237|   -4.552997|   -4.175196|  -11.125235|    1.798561|
|         360|  6.8057e+00|   -4.355671|   -4.485477|   -4.719452|   -4.556144|   -4.178761|  -11.121523|    1.791497|
|         361|  6.8048e+00|   -4.358917|   -4.489634|   -4.721650|   -4.559280|   -4.182348|  -11.117734|    1.784620|
|         362|  6.8040e+00|   -4.362164|   -4.493805|   -4.723831|   -4.562398|   -4.185945|  -11.113832|    1.777932|
|         363|  6.8032e+00|   -4.365405|   -4.497987|   -4.725998|   -4.565486|   -4.189546|  -11.109801|    1.771434|
|         364|  6.8025e+00|   -4.368627|   -4.502179|   -4.728151|   -4.568533|   -4.193140|  -11.105655|    1.765130|
|         365|  6.8020e+00|   -4.371817|   -4.506372|   -4.730293|   -4.571522|   -4.196712|  -11.101376|    1.759022|
|         366|  6.8014e+00|   -4.374966|   -4.510561|   -4.732421|   -4.574438|   -4.200255|  -11.096944|    1.753110|
|         367|  6.8007e+00|   -4.378065|   -4.514738|   -4.734538|   -4.577267|   -4.203759|  -11.092390|    1.747398|
|         368|  6.8000e+00|   -4.381105|   -4.518891|   -4.736643|   -4.579998|   -4.207213|  -11.087762|    1.741885|
|         369|  6.7992e+00|   -4.384088|   -4.523009|   -4.738741|   -4.582629|   -4.210621|  -11.083104|    1.736573|
|         370|  6.7986e+00|   -4.387010|   -4.527084|   -4.740828|   -4.585147|   -4.213981|  -11.078437|    1.731463|
|         371|  6.7979e+00|   -4.389865|   -4.531110|   -4.742898|   -4.587544|   -4.217285|  -11.073750|    1.726554|
|         372|  6.7972e+00|   -4.392637|   -4.535084|   -4.744933|   -4.589799|   -4.220519|  -11.069029|    1.721847|
|         373|  6.7965e+00|   -4.395311|   -4.539009|   -4.746928|   -4.591896|   -4.223667|  -11.064319|    1.717342|
|         374|  6.7958e+00|   -4.397866|   -4.542876|   -4.748872|   -4.593814|   -4.226708|  -11.059595|    1.713038|
|         375|  6.7948e+00|   -4.400295|   -4.546685|   -4.750772|   -4.595543|   -4.229634|  -11.054847|    1.708934|
|         376|  6.7942e+00|   -4.402587|   -4.550424|   -4.752625|   -4.597074|   -4.232436|  -11.050081|    1.705030|
|         377|  6.7936e+00|   -4.404731|   -4.554085|   -4.754428|   -4.598397|   -4.235104|  -11.045288|    1.701324|
|         378|  6.7929e+00|   -4.406722|   -4.557658|   -4.756175|   -4.599509|   -4.237635|  -11.040426|    1.697816|
|         379|  6.7920e+00|   -4.408554|   -4.561136|   -4.757869|   -4.600400|   -4.240025|  -11.035477|    1.694505|
|         380|  6.7914e+00|   -4.410218|   -4.564516|   -4.759500|   -4.601058|   -4.242265|  -11.030433|    1.691387|
|         381|  6.7907e+00|   -4.411701|   -4.567793|   -4.761058|   -4.601471|   -4.244341|  -11.025299|    1.688464|
|         382|  6.7900e+00|   -4.412994|   -4.570961|   -4.762532|   -4.601628|   -4.246239|  -11.020134|    1.685731|
|         383|  6.7893e+00|   -4.414090|   -4.574014|   -4.763916|   -4.601523|   -4.247952|  -11.014941|    1.683190|
|         384|  6.7888e+00|   -4.414984|   -4.576944|   -4.765201|   -4.601159|   -4.249474|  -11.009723|    1.680837|
|         385|  6.7880e+00|   -4.415671|   -4.579744|   -4.766381|   -4.600539|   -4.250801|  -11.004456|    1.678671|
|         386|  6.7871e+00|   -4.416141|   -4.582403|   -4.767448|   -4.599667|   -4.251925|  -10.999155|    1.676690|
|         387|  6.7864e+00|   -4.416395|   -4.584917|   -4.768396|   -4.598550|   -4.252844|  -10.993809|    1.674893|
|         388|  6.7857e+00|   -4.416431|   -4.587287|   -4.769215|   -4.597196|   -4.253556|  -10.988409|    1.673279|
|         389|  6.7849e+00|   -4.416244|   -4.589509|   -4.769901|   -4.595612|   -4.254056|  -10.982923|    1.671845|
|         390|  6.7840e+00|   -4.415830|   -4.591578|   -4.770449|   -4.593804|   -4.254337|  -10.977341|    1.670589|
|         391|  6.7835e+00|   -4.415192|   -4.593494|   -4.770856|   -4.591782|   -4.254396|  -10.971634|    1.669510|
|         392|  6.7828e+00|   -4.414330|   -4.595252|   -4.771127|   -4.589557|   -4.254232|  -10.965824|    1.668607|
|         393|  6.7822e+00|   -4.413251|   -4.596853|   -4.771257|   -4.587138|   -4.253850|  -10.959985|    1.667876|
|         394|  6.7817e+00|   -4.411962|   -4.598296|   -4.771243|   -4.584541|   -4.253258|  -10.954153|    1.667317|
|         395|  6.7811e+00|   -4.410472|   -4.599580|   -4.771084|   -4.581780|   -4.252465|  -10.948314|    1.666927|
|         396|  6.7808e+00|   -4.408788|   -4.600706|   -4.770781|   -4.578872|   -4.251478|  -10.942485|    1.666705|
|         397|  6.7802e+00|   -4.406921|   -4.601672|   -4.770337|   -4.575836|   -4.250305|  -10.936664|    1.666649|
|         398|  6.7795e+00|   -4.404878|   -4.602480|   -4.769756|   -4.572687|   -4.248957|  -10.930831|    1.666756|
|         399|  6.7789e+00|   -4.402664|   -4.603129|   -4.769040|   -4.569433|   -4.247440|  -10.925055|    1.667025|
|         400|  6.7782e+00|   -4.400286|   -4.603624|   -4.768183|   -4.566080|   -4.245756|  -10.919340|    1.667453|
|         401|  6.7776e+00|   -4.397744|   -4.603964|   -4.767182|   -4.562631|   -4.243907|  -10.913679|    1.668038|
|         402|  6.7771e+00|   -4.395050|   -4.604155|   -4.766033|   -4.559093|   -4.241902|  -10.908087|    1.668777|
|         403|  6.7766e+00|   -4.392214|   -4.604201|   -4.764738|   -4.555473|   -4.239748|  -10.902558|    1.669667|
|         404|  6.7760e+00|   -4.389245|   -4.604107|   -4.763295|   -4.551777|   -4.237456|  -10.897110|    1.670706|
|         405|  6.7754e+00|   -4.386146|   -4.603874|   -4.761709|   -4.548015|   -4.235027|  -10.891790|    1.671891|
|         406|  6.7748e+00|   -4.382934|   -4.603504|   -4.759987|   -4.544198|   -4.232470|  -10.886608|    1.673220|
|         407|  6.7744e+00|   -4.379616|   -4.602999|   -4.758134|   -4.540337|   -4.229796|  -10.881523|    1.674688|
|         408|  6.7737e+00|   -4.376202|   -4.602359|   -4.756151|   -4.536439|   -4.227011|  -10.876494|    1.676294|
|         409|  6.7732e+00|   -4.372699|   -4.601586|   -4.754041|   -4.532509|   -4.224123|  -10.871473|    1.678035|
|         410|  6.7728e+00|   -4.369118|   -4.600683|   -4.751806|   -4.528555|   -4.221145|  -10.866493|    1.679907|
|         411|  6.7722e+00|   -4.365468|   -4.599652|   -4.749453|   -4.524584|   -4.218084|  -10.861578|    1.681909|
|         412|  6.7716e+00|   -4.361761|   -4.598498|   -4.746987|   -4.520604|   -4.214950|  -10.856731|    1.684037|
|         413|  6.7708e+00|   -4.358000|   -4.597220|   -4.744415|   -4.516619|   -4.211748|  -10.851951|    1.686288|
|         414|  6.7703e+00|   -4.354197|   -4.595822|   -4.741744|   -4.512639|   -4.208487|  -10.847220|    1.688661|
|         415|  6.7696e+00|   -4.350356|   -4.594308|   -4.738975|   -4.508669|   -4.205173|  -10.842547|    1.691152|
|         416|  6.7689e+00|   -4.346484|   -4.592678|   -4.736115|   -4.504715|   -4.201812|  -10.837933|    1.693759|
|         417|  6.7687e+00|   -4.342588|   -4.590939|   -4.733172|   -4.500781|   -4.198411|  -10.833389|    1.696480|
|         418|  6.7680e+00|   -4.338669|   -4.589094|   -4.730150|   -4.496868|   -4.194971|  -10.828939|    1.699313|
|         419|  6.7674e+00|   -4.334734|   -4.587143|   -4.727057|   -4.492984|   -4.191500|  -10.824548|    1.702255|
|         420|  6.7668e+00|   -4.330787|   -4.585090|   -4.723904|   -4.489131|   -4.188002|  -10.820184|    1.705304|
|         421|  6.7662e+00|   -4.326833|   -4.582937|   -4.720697|   -4.485311|   -4.184481|  -10.815868|    1.708458|
|         422|  6.7656e+00|   -4.322889|   -4.580693|   -4.717446|   -4.481541|   -4.180956|  -10.811599|    1.711715|
|         423|  6.7649e+00|   -4.318958|   -4.578363|   -4.714158|   -4.477820|   -4.177428|  -10.807345|    1.715074|
|         424|  6.7642e+00|   -4.315044|   -4.575952|   -4.710845|   -4.474156|   -4.173901|  -10.803084|    1.718533|
|         425|  6.7636e+00|   -4.311149|   -4.573467|   -4.707514|   -4.470548|   -4.170380|  -10.798816|    1.722090|
|         426|  6.7630e+00|   -4.307280|   -4.570918|   -4.704170|   -4.466997|   -4.166869|  -10.794540|    1.725745|
|         427|  6.7626e+00|   -4.303438|   -4.568311|   -4.700820|   -4.463502|   -4.163368|  -10.790283|    1.729494|
|         428|  6.7625e+00|   -4.299623|   -4.565651|   -4.697467|   -4.460062|   -4.159879|  -10.786062|    1.733338|
|         429|  6.7620e+00|   -4.295845|   -4.562948|   -4.694123|   -4.456686|   -4.156415|  -10.781875|    1.737275|
|         430|  6.7614e+00|   -4.292101|   -4.560203|   -4.690791|   -4.453369|   -4.152974|  -10.777706|    1.741303|
|         431|  6.7608e+00|   -4.288397|   -4.557424|   -4.687484|   -4.450115|   -4.149563|  -10.773555|    1.745421|
|         432|  6.7606e+00|   -4.284734|   -4.554615|   -4.684205|   -4.446928|   -4.146185|  -10.769390|    1.749628|
|         433|  6.7600e+00|   -4.281111|   -4.551778|   -4.680959|   -4.443809|   -4.142842|  -10.765217|    1.753920|
|         434|  6.7594e+00|   -4.277520|   -4.548915|   -4.677747|   -4.440749|   -4.139525|  -10.761024|    1.758297|
|         435|  6.7587e+00|   -4.273966|   -4.546031|   -4.674576|   -4.437750|   -4.136242|  -10.756767|    1.762754|
|         436|  6.7581e+00|   -4.270457|   -4.543132|   -4.671454|   -4.434816|   -4.133001|  -10.752457|    1.767288|
|         437|  6.7575e+00|   -4.266987|   -4.540220|   -4.668383|   -4.431946|   -4.129800|  -10.748086|    1.771896|
|         438|  6.7568e+00|   -4.263560|   -4.537300|   -4.665363|   -4.429139|   -4.126640|  -10.743674|    1.776572|
|         439|  6.7562e+00|   -4.260166|   -4.534379|   -4.662387|   -4.426377|   -4.123509|  -10.739228|    1.781312|
|         440|  6.7555e+00|   -4.256818|   -4.531464|   -4.659453|   -4.423668|   -4.120420|  -10.734759|    1.786111|
|         441|  6.7548e+00|   -4.253522|   -4.528562|   -4.656555|   -4.421018|   -4.117379|  -10.730315|    1.790966|
|         442|  6.7543e+00|   -4.250266|   -4.525674|   -4.653687|   -4.418417|   -4.114376|  -10.725909|    1.795871|
|         443|  6.7537e+00|   -4.247056|   -4.522806|   -4.650844|   -4.415868|   -4.111420|  -10.721510|    1.800825|
|         444|  6.7530e+00|   -4.243900|   -4.519964|   -4.648028|   -4.413377|   -4.108520|  -10.717093|    1.805824|
|         445|  6.7525e+00|   -4.240792|   -4.517144|   -4.645232|   -4.410948|   -4.105674|  -10.712683|    1.810866|
|         446|  6.7526e+00|   -4.237736|   -4.514352|   -4.642457|   -4.408587|   -4.102889|  -10.708245|    1.815949|
|         447|  6.7522e+00|   -4.234739|   -4.511585|   -4.639706|   -4.406298|   -4.100168|  -10.703748|    1.821070|
|         448|  6.7516e+00|   -4.231788|   -4.508835|   -4.636979|   -4.404073|   -4.097497|  -10.699188|    1.826228|
|         449|  6.7511e+00|   -4.228870|   -4.506093|   -4.634276|   -4.401899|   -4.094861|  -10.694570|    1.831422|
|         450|  6.7506e+00|   -4.225983|   -4.503354|   -4.631602|   -4.399773|   -4.092256|  -10.689976|    1.836651|
+-----------------------------------------------------------------------+
|        File Writing Summary       |              Filename             |
+-----------------------------------------------------------------------+
|SU2 binary restart                 |restart_flow.dat                   |
|Paraview                           |flow.vtu                           |
|Paraview surface                   |surface_flow.vtu                   |
+-----------------------------------------------------------------------+
+--------------------------------------------------------------------------------------------------------------------+
|  Inner_Iter|   Time(sec)|    rms[Rho]|   rms[RhoU]|   rms[RhoV]|   rms[RhoW]|   rms[RhoE]|     rms[nu]|          CD|
+--------------------------------------------------------------------------------------------------------------------+
|         451|  6.7993e+00|   -4.223132|   -4.500612|   -4.628965|   -4.397702|   -4.089689|  -10.685401|    1.841913|
|         452|  6.7990e+00|   -4.220309|   -4.497863|   -4.626360|   -4.395676|   -4.087148|  -10.680743|    1.847207|
|         453|  6.7986e+00|   -4.217513|   -4.495104|   -4.623780|   -4.393696|   -4.084630|  -10.675992|    1.852532|
|         454|  6.7980e+00|   -4.214749|   -4.492329|   -4.621231|   -4.391761|   -4.082138|  -10.671202|    1.857886|
|         455|  6.7975e+00|   -4.212021|   -4.489539|   -4.618712|   -4.389874|   -4.079677|  -10.666381|    1.863269|
|         456|  6.7970e+00|   -4.209322|   -4.486728|   -4.616217|   -4.388024|   -4.077230|  -10.661495|    1.868680|
|         457|  6.7965e+00|   -4.206653|   -4.483901|   -4.613749|   -4.386207|   -4.074798|  -10.656549|    1.874118|
|         458|  6.7959e+00|   -4.204027|   -4.481061|   -4.611314|   -4.384434|   -4.072393|  -10.651582|    1.879584|
|         459|  6.7954e+00|   -4.201432|   -4.478204|   -4.608900|   -4.382694|   -4.070002|  -10.646656|    1.885076|
|         460|  6.7948e+00|   -4.198869|   -4.475337|   -4.606507|   -4.380986|   -4.067628|  -10.641780|    1.890596|
|         461|  6.7942e+00|   -4.196359|   -4.472465|   -4.604142|   -4.379332|   -4.065297|  -10.636918|    1.896144|
|         462|  6.7937e+00|   -4.193890|   -4.469590|   -4.601807|   -4.377730|   -4.062999|  -10.632048|    1.901719|
|         463|  6.7930e+00|   -4.191468|   -4.466717|   -4.599510|   -4.376179|   -4.060742|  -10.627131|    1.907324|
|         464|  6.7923e+00|   -4.189083|   -4.463847|   -4.597252|   -4.374670|   -4.058512|  -10.622138|    1.912957|
|         465|  6.7918e+00|   -4.186749|   -4.460986|   -4.595034|   -4.373224|   -4.056326|  -10.617117|    1.918618|
|         466|  6.7912e+00|   -4.184452|   -4.458135|   -4.592853|   -4.371826|   -4.054164|  -10.612108|    1.924306|
|         467|  6.7908e+00|   -4.182195|   -4.455302|   -4.590702|   -4.370478|   -4.052030|  -10.607109|    1.930022|
|         468|  6.7903e+00|   -4.179979|   -4.452492|   -4.588576|   -4.369177|   -4.049925|  -10.602141|    1.935764|
|         469|  6.7897e+00|   -4.177799|   -4.449714|   -4.586473|   -4.367914|   -4.047841|  -10.597174|    1.941531|
|         470|  6.7893e+00|   -4.175653|   -4.446969|   -4.584389|   -4.366687|   -4.045782|  -10.592192|    1.947321|
|         471|  6.7886e+00|   -4.173544|   -4.444261|   -4.582324|   -4.365496|   -4.043751|  -10.587214|    1.953131|
|         472|  6.7883e+00|   -4.171472|   -4.441588|   -4.580281|   -4.364339|   -4.041751|  -10.582237|    1.958961|
|         473|  6.7878e+00|   -4.169438|   -4.438954|   -4.578264|   -4.363218|   -4.039786|  -10.577263|    1.964808|
|         474|  6.7870e+00|   -4.167456|   -4.436357|   -4.576288|   -4.362152|   -4.037875|  -10.572312|    1.970670|
|         475|  6.7865e+00|   -4.165517|   -4.433794|   -4.574355|   -4.361134|   -4.036007|  -10.567404|    1.976545|
|         476|  6.7858e+00|   -4.163629|   -4.431266|   -4.572471|   -4.360172|   -4.034194|  -10.562524|    1.982431|
|         477|  6.7851e+00|   -4.161789|   -4.428769|   -4.570637|   -4.359262|   -4.032428|  -10.557664|    1.988327|
|         478|  6.7845e+00|   -4.159983|   -4.426301|   -4.568858|   -4.358387|   -4.030689|  -10.552846|    1.994231|
|         479|  6.7840e+00|   -4.158218|   -4.423865|   -4.567146|   -4.357553|   -4.028990|  -10.548095|    2.000141|
|         480|  6.7836e+00|   -4.156488|   -4.421460|   -4.565495|   -4.356755|   -4.027323|  -10.543428|    2.006056|
|         481|  6.7830e+00|   -4.154800|   -4.419091|   -4.563912|   -4.355998|   -4.025698|  -10.538837|    2.011976|
|         482|  6.7825e+00|   -4.153145|   -4.416758|   -4.562392|   -4.355270|   -4.024105|  -10.534293|    2.017899|
|         483|  6.7820e+00|   -4.151527|   -4.414465|   -4.560933|   -4.354571|   -4.022546|  -10.529781|    2.023823|
|         484|  6.7814e+00|   -4.149951|   -4.412223|   -4.559537|   -4.353906|   -4.021034|  -10.525309|    2.029747|
|         485|  6.7809e+00|   -4.148430|   -4.410031|   -4.558209|   -4.353280|   -4.019577|  -10.520862|    2.035671|
|         486|  6.7805e+00|   -4.146957|   -4.407888|   -4.556942|   -4.352682|   -4.018161|  -10.516412|    2.041593|
|         487|  6.7799e+00|   -4.145527|   -4.405794|   -4.555719|   -4.352101|   -4.016774|  -10.511955|    2.047512|
|         488|  6.7794e+00|   -4.144153|   -4.403756|   -4.554544|   -4.351544|   -4.015434|  -10.507480|    2.053425|
|         489|  6.7790e+00|   -4.142837|   -4.401767|   -4.553410|   -4.351011|   -4.014137|  -10.502993|    2.059330|
|         490|  6.7784e+00|   -4.141576|   -4.399830|   -4.552312|   -4.350501|   -4.012883|  -10.498494|    2.065227|
|         491|  6.7779e+00|   -4.140387|   -4.397952|   -4.551257|   -4.350029|   -4.011692|  -10.493965|    2.071112|
|         492|  6.7773e+00|   -4.139270|   -4.396135|   -4.550252|   -4.349595|   -4.010564|  -10.489404|    2.076984|
|         493|  6.7768e+00|   -4.138220|   -4.394382|   -4.549303|   -4.349196|   -4.009492|  -10.484802|    2.082839|
|         494|  6.7763e+00|   -4.137249|   -4.392697|   -4.548405|   -4.348846|   -4.008493|  -10.480147|    2.088677|
|         495|  6.7759e+00|   -4.136351|   -4.391080|   -4.547560|   -4.348547|   -4.007562|  -10.475408|    2.094494|
|         496|  6.7755e+00|   -4.135535|   -4.389540|   -4.546776|   -4.348314|   -4.006712|  -10.470587|    2.100289|
|         497|  6.7752e+00|   -4.134793|   -4.388085|   -4.546057|   -4.348145|   -4.005940|  -10.465727|    2.106063|
|         498|  6.7753e+00|   -4.134127|   -4.386710|   -4.545401|   -4.348048|   -4.005249|  -10.460873|    2.111814|
|         499|  6.7752e+00|   -4.133528|   -4.385414|   -4.544803|   -4.348012|   -4.004626|  -10.456058|    2.117543|
|         500|  6.7752e+00|   -4.133012|   -4.384205|   -4.544272|   -4.348052|   -4.004094|  -10.451293|    2.123251|
|         501|  6.7749e+00|   -4.132577|   -4.383086|   -4.543812|   -4.348171|   -4.003653|  -10.446563|    2.128936|
|         502|  6.7746e+00|   -4.132205|   -4.382050|   -4.543415|   -4.348354|   -4.003282|  -10.441843|    2.134599|
|         503|  6.7740e+00|   -4.131897|   -4.381100|   -4.543085|   -4.348599|   -4.002983|  -10.437057|    2.140238|
|         504|  6.7735e+00|   -4.131680|   -4.380239|   -4.542847|   -4.348936|   -4.002789|  -10.432204|    2.145853|
|         505|  6.7731e+00|   -4.131546|   -4.379463|   -4.542684|   -4.349358|   -4.002688|  -10.427279|    2.151440|
|         506|  6.7728e+00|   -4.131494|   -4.378766|   -4.542596|   -4.349870|   -4.002676|  -10.422259|    2.156996|
|         507|  6.7723e+00|   -4.131508|   -4.378145|   -4.542591|   -4.350446|   -4.002730|  -10.417165|    2.162517|
|         508|  6.7718e+00|   -4.131597|   -4.377601|   -4.542681|   -4.351094|   -4.002863|  -10.412011|    2.167997|
|         509|  6.7713e+00|   -4.131761|   -4.377125|   -4.542859|   -4.351815|   -4.003075|  -10.406820|    2.173433|
|         510|  6.7709e+00|   -4.131992|   -4.376713|   -4.543119|   -4.352600|   -4.003356|  -10.401594|    2.178819|
|         511|  6.7704e+00|   -4.132293|   -4.376359|   -4.543465|   -4.353459|   -4.003713|  -10.396332|    2.184149|
|         512|  6.7699e+00|   -4.132662|   -4.376058|   -4.543897|   -4.354391|   -4.004145|  -10.391052|    2.189418|
|         513|  6.7696e+00|   -4.133092|   -4.375802|   -4.544403|   -4.355390|   -4.004644|  -10.385745|    2.194621|
|         514|  6.7691e+00|   -4.133583|   -4.375590|   -4.544980|   -4.356453|   -4.005211|  -10.380398|    2.199754|
|         515|  6.7687e+00|   -4.134126|   -4.375415|   -4.545621|   -4.357574|   -4.005836|  -10.375008|    2.204811|
|         516|  6.7684e+00|   -4.134719|   -4.375268|   -4.546319|   -4.358753|   -4.006516|  -10.369562|    2.209788|
|         517|  6.7680e+00|   -4.135370|   -4.375149|   -4.547087|   -4.359995|   -4.007263|  -10.364029|    2.214681|
|         518|  6.7676e+00|   -4.136073|   -4.375042|   -4.547912|   -4.361296|   -4.008069|  -10.358404|    2.219486|
|         519|  6.7671e+00|   -4.136818|   -4.374930|   -4.548791|   -4.362649|   -4.008924|  -10.352692|    2.224200|
|         520|  6.7668e+00|   -4.137616|   -4.374791|   -4.549723|   -4.364063|   -4.009834|  -10.346881|    2.228819|
|         521|  6.7664e+00|   -4.138453|   -4.374619|   -4.550690|   -4.365531|   -4.010787|  -10.340971|    2.233339|
|         522|  6.7661e+00|   -4.139327|   -4.374402|   -4.551692|   -4.367045|   -4.011782|  -10.334963|    2.237757|
|         523|  6.7656e+00|   -4.140235|   -4.374119|   -4.552721|   -4.368602|   -4.012809|  -10.328894|    2.242070|
|         524|  6.7651e+00|   -4.141173|   -4.373755|   -4.553773|   -4.370197|   -4.013865|  -10.322732|    2.246275|
|         525|  6.7647e+00|   -4.142149|   -4.373292|   -4.554849|   -4.371838|   -4.014955|  -10.316449|    2.250369|
|         526|  6.7641e+00|   -4.143165|   -4.372716|   -4.555950|   -4.373534|   -4.016082|  -10.310036|    2.254349|
|         527|  6.7637e+00|   -4.144230|   -4.372006|   -4.557079|   -4.375294|   -4.017252|  -10.303482|    2.258212|
|         528|  6.7631e+00|   -4.145331|   -4.371139|   -4.558212|   -4.377101|   -4.018448|  -10.296838|    2.261955|
|         529|  6.7627e+00|   -4.146456|   -4.370089|   -4.559333|   -4.378948|   -4.019655|  -10.290121|    2.265578|
|         530|  6.7621e+00|   -4.147606|   -4.368835|   -4.560433|   -4.380846|   -4.020880|  -10.283267|    2.269076|
|         531|  6.7615e+00|   -4.148784|   -4.367351|   -4.561508|   -4.382809|   -4.022131|  -10.276259|    2.272450|
|         532|  6.7611e+00|   -4.149995|   -4.365610|   -4.562551|   -4.384855|   -4.023419|  -10.269087|    2.275698|
|         533|  6.7607e+00|   -4.151249|   -4.363587|   -4.563562|   -4.387001|   -4.024763|  -10.261736|    2.278819|
|         534|  6.7602e+00|   -4.152545|   -4.361245|   -4.564525|   -4.389255|   -4.026163|  -10.254227|    2.281814|
|         535|  6.7598e+00|   -4.153872|   -4.358538|   -4.565424|   -4.391616|   -4.027615|  -10.246567|    2.284684|
|         536|  6.7594e+00|   -4.155223|   -4.355415|   -4.566233|   -4.394081|   -4.029111|  -10.238701|    2.287429|
|         537|  6.7588e+00|   -4.156593|   -4.351834|   -4.566941|   -4.396649|   -4.030653|  -10.230638|    2.290052|
|         538|  6.7582e+00|   -4.157964|   -4.347732|   -4.567518|   -4.399296|   -4.032225|  -10.222402|    2.292555|
[...]
|        5089|  6.7233e+00|   -7.929195|   -7.972932|   -8.250325|   -8.089658|   -7.793483|   -8.651321|    2.173023|
|        5090|  6.7233e+00|   -7.927748|   -7.973475|   -8.249544|   -8.089356|   -7.792846|   -8.651740|    2.173025|
|        5091|  6.7233e+00|   -7.926331|   -7.973997|   -8.248783|   -8.089072|   -7.792221|   -8.652164|    2.173027|
|        5092|  6.7232e+00|   -7.924943|   -7.974497|   -8.248045|   -8.088806|   -7.791607|   -8.652595|    2.173029|
|        5093|  6.7232e+00|   -7.923587|   -7.974974|   -8.247329|   -8.088559|   -7.791007|   -8.653032|    2.173031|
|        5094|  6.7232e+00|   -7.922263|   -7.975429|   -8.246636|   -8.088330|   -7.790422|   -8.653475|    2.173033|
|        5095|  6.7232e+00|   -7.920972|   -7.975861|   -8.245968|   -8.088120|   -7.789852|   -8.653925|    2.173035|
|        5096|  6.7231e+00|   -7.919714|   -7.976271|   -8.245325|   -8.087929|   -7.789298|   -8.654380|    2.173037|
|        5097|  6.7231e+00|   -7.918491|   -7.976658|   -8.244708|   -8.087757|   -7.788762|   -8.654840|    2.173039|
|        5098|  6.7231e+00|   -7.917304|   -7.977023|   -8.244117|   -8.087606|   -7.788245|   -8.655306|    2.173041|
|        5099|  6.7231e+00|   -7.916152|   -7.977367|   -8.243553|   -8.087474|   -7.787747|   -8.655778|    2.173043|
|        5100|  6.7230e+00|   -7.915036|   -7.977689|   -8.243017|   -8.087363|   -7.787270|   -8.656255|    2.173045|
+-----------------------------------------------------------------------+
|        File Writing Summary       |              Filename             |
+-----------------------------------------------------------------------+
|SU2 binary restart                 |restart_flow.dat                   |
|Paraview                           |flow.vtu                           |
|Paraview surface                   |surface_flow.vtu                   |
+-----------------------------------------------------------------------+
+--------------------------------------------------------------------------------------------------------------------+
|  Inner_Iter|   Time(sec)|    rms[Rho]|   rms[RhoU]|   rms[RhoV]|   rms[RhoW]|   rms[RhoE]|     rms[nu]|          CD|
+--------------------------------------------------------------------------------------------------------------------+
|        5101|  6.7274e+00|   -7.913958|   -7.977991|   -8.242508|   -8.087273|   -7.786814|   -8.656738|    2.173047|
|        5102|  6.7274e+00|   -7.912917|   -7.978272|   -8.242029|   -8.087205|   -7.786380|   -8.657225|    2.173050|
|        5103|  6.7274e+00|   -7.911913|   -7.978534|   -8.241578|   -8.087158|   -7.785968|   -8.657718|    2.173052|
|        5104|  6.7274e+00|   -7.910948|   -7.978778|   -8.241157|   -8.087133|   -7.785581|   -8.658215|    2.173054|
|        5105|  6.7274e+00|   -7.910021|   -7.979003|   -8.240765|   -8.087130|   -7.785218|   -8.658717|    2.173056|
|        5106|  6.7274e+00|   -7.909133|   -7.979213|   -8.240404|   -8.087150|   -7.784879|   -8.659223|    2.173058|
|        5107|  6.7273e+00|   -7.908284|   -7.979407|   -8.240073|   -8.087194|   -7.784567|   -8.659734|    2.173060|
|        5108|  6.7273e+00|   -7.907474|   -7.979586|   -8.239773|   -8.087261|   -7.784281|   -8.660249|    2.173062|
|        5109|  6.7273e+00|   -7.906703|   -7.979752|   -8.239504|   -8.087353|   -7.784021|   -8.660768|    2.173064|
|        5110|  6.7273e+00|   -7.905971|   -7.979907|   -8.239266|   -8.087468|   -7.783790|   -8.661291|    2.173066|
|        5111|  6.7272e+00|   -7.905279|   -7.980051|   -8.239060|   -8.087609|   -7.783586|   -8.661817|    2.173069|
|        5112|  6.7272e+00|   -7.904627|   -7.980185|   -8.238885|   -8.087776|   -7.783411|   -8.662348|    2.173071|
|        5113|  6.7272e+00|   -7.904014|   -7.980312|   -8.238741|   -8.087968|   -7.783264|   -8.662881|    2.173073|
|        5114|  6.7271e+00|   -7.903441|   -7.980433|   -8.238630|   -8.088186|   -7.783147|   -8.663418|    2.173075|
|        5115|  6.7271e+00|   -7.902907|   -7.980548|   -8.238550|   -8.088430|   -7.783059|   -8.663958|    2.173077|
|        5116|  6.7271e+00|   -7.902412|   -7.980660|   -8.238502|   -8.088702|   -7.783001|   -8.664500|    2.173079|
|        5117|  6.7270e+00|   -7.901956|   -7.980770|   -8.238486|   -8.089001|   -7.782973|   -8.665045|    2.173081|
|        5118|  6.7270e+00|   -7.901539|   -7.980879|   -8.238501|   -8.089327|   -7.782975|   -8.665593|    2.173083|
|        5119|  6.7270e+00|   -7.901160|   -7.980989|   -8.238549|   -8.089682|   -7.783008|   -8.666143|    2.173085|
|        5120|  6.7269e+00|   -7.900820|   -7.981101|   -8.238627|   -8.090064|   -7.783071|   -8.666695|    2.173087|
|        5121|  6.7269e+00|   -7.900519|   -7.981216|   -8.238738|   -8.090476|   -7.783164|   -8.667249|    2.173089|
|        5122|  6.7269e+00|   -7.900255|   -7.981337|   -8.238879|   -8.090916|   -7.783289|   -8.667805|    2.173091|
|        5123|  6.7268e+00|   -7.900030|   -7.981465|   -8.239052|   -8.091386|   -7.783444|   -8.668362|    2.173093|
|        5124|  6.7268e+00|   -7.899842|   -7.981600|   -8.239256|   -8.091884|   -7.783630|   -8.668921|    2.173095|
|        5125|  6.7268e+00|   -7.899691|   -7.981744|   -8.239491|   -8.092413|   -7.783846|   -8.669480|    2.173097|
|        5126|  6.7267e+00|   -7.899577|   -7.981899|   -8.239756|   -8.092971|   -7.784093|   -8.670041|    2.173099|
|        5127|  6.7267e+00|   -7.899501|   -7.982066|   -8.240052|   -8.093560|   -7.784371|   -8.670602|    2.173100|
|        5128|  6.7267e+00|   -7.899460|   -7.982246|   -8.240379|   -8.094178|   -7.784678|   -8.671164|    2.173102|
|        5129|  6.7267e+00|   -7.899456|   -7.982439|   -8.240735|   -8.094827|   -7.785016|   -8.671726|    2.173104|
|        5130|  6.7266e+00|   -7.899489|   -7.982649|   -8.241121|   -8.095507|   -7.785384|   -8.672289|    2.173106|
|        5131|  6.7266e+00|   -7.899557|   -7.982874|   -8.241536|   -8.096217|   -7.785782|   -8.672851|    2.173108|
|        5132|  6.7266e+00|   -7.899660|   -7.983117|   -8.241981|   -8.096957|   -7.786210|   -8.673413|    2.173110|
|        5133|  6.7265e+00|   -7.899799|   -7.983379|   -8.242455|   -8.097728|   -7.786667|   -8.673975|    2.173111|
|        5134|  6.7265e+00|   -7.899974|   -7.983660|   -8.242957|   -8.098529|   -7.787154|   -8.674536|    2.173113|
|        5135|  6.7265e+00|   -7.900183|   -7.983961|   -8.243487|   -8.099361|   -7.787669|   -8.675096|    2.173115|
|        5136|  6.7265e+00|   -7.900427|   -7.984283|   -8.244046|   -8.100223|   -7.788213|   -8.675655|    2.173116|
|        5137|  6.7264e+00|   -7.900706|   -7.984626|   -8.244632|   -8.101115|   -7.788784|   -8.676213|    2.173118|
|        5138|  6.7264e+00|   -7.901018|   -7.984991|   -8.245245|   -8.102038|   -7.789383|   -8.676770|    2.173120|
|        5139|  6.7264e+00|   -7.901364|   -7.985378|   -8.245886|   -8.102989|   -7.790009|   -8.677325|    2.173121|
|        5140|  6.7263e+00|   -7.901744|   -7.985788|   -8.246553|   -8.103971|   -7.790662|   -8.677878|    2.173123|
|        5141|  6.7263e+00|   -7.902158|   -7.986222|   -8.247247|   -8.104981|   -7.791341|   -8.678429|    2.173124|
|        5142|  6.7263e+00|   -7.902605|   -7.986679|   -8.247966|   -8.106020|   -7.792046|   -8.678979|    2.173126|
|        5143|  6.7263e+00|   -7.903084|   -7.987159|   -8.248711|   -8.107087|   -7.792776|   -8.679525|    2.173127|
|        5144|  6.7262e+00|   -7.903597|   -7.987663|   -8.249481|   -8.108183|   -7.793531|   -8.680069|    2.173129|
|        5145|  6.7262e+00|   -7.904143|   -7.988190|   -8.250277|   -8.109305|   -7.794311|   -8.680611|    2.173130|
|        5146|  6.7262e+00|   -7.904722|   -7.988741|   -8.251097|   -8.110455|   -7.795115|   -8.681150|    2.173132|
|        5147|  6.7262e+00|   -7.905334|   -7.989316|   -8.251941|   -8.111630|   -7.795942|   -8.681685|    2.173133|
|        5148|  6.7261e+00|   -7.905978|   -7.989914|   -8.252809|   -8.112832|   -7.796791|   -8.682217|    2.173134|
|        5149|  6.7261e+00|   -7.906654|   -7.990534|   -8.253700|   -8.114058|   -7.797664|   -8.682746|    2.173136|
|        5150|  6.7261e+00|   -7.907364|   -7.991178|   -8.254614|   -8.115308|   -7.798558|   -8.683272|    2.173137|
|        5151|  6.7261e+00|   -7.908106|   -7.991843|   -8.255552|   -8.116582|   -7.799473|   -8.683793|    2.173138|
|        5152|  6.7260e+00|   -7.908881|   -7.992530|   -8.256511|   -8.117878|   -7.800409|   -8.684311|    2.173140|
|        5153|  6.7260e+00|   -7.909688|   -7.993238|   -8.257493|   -8.119196|   -7.801366|   -8.684824|    2.173141|
|        5154|  6.7259e+00|   -7.910528|   -7.993966|   -8.258496|   -8.120535|   -7.802342|   -8.685334|    2.173142|
|        5155|  6.7259e+00|   -7.911401|   -7.994714|   -8.259521|   -8.121893|   -7.803337|   -8.685839|    2.173143|
|        5156|  6.7259e+00|   -7.912307|   -7.995480|   -8.260566|   -8.123270|   -7.804351|   -8.686339|    2.173144|
|        5157|  6.7258e+00|   -7.913246|   -7.996264|   -8.261632|   -8.124665|   -7.805383|   -8.686835|    2.173145|
|        5158|  6.7258e+00|   -7.914217|   -7.997065|   -8.262718|   -8.126076|   -7.806433|   -8.687326|    2.173146|
|        5159|  6.7258e+00|   -7.915222|   -7.997881|   -8.263825|   -8.127503|   -7.807499|   -8.687812|    2.173148|
|        5160|  6.7257e+00|   -7.916260|   -7.998712|   -8.264950|   -8.128944|   -7.808582|   -8.688293|    2.173149|
|        5161|  6.7257e+00|   -7.917331|   -7.999556|   -8.266095|   -8.130397|   -7.809681|   -8.688769|    2.173150|
|        5162|  6.7257e+00|   -7.918436|   -8.000412|   -8.267259|   -8.131862|   -7.810796|   -8.689240|    2.173151|
|        5163|  6.7256e+00|   -7.919574|   -8.001280|   -8.268441|   -8.133337|   -7.811925|   -8.689705|    2.173151|
|        5164|  6.7256e+00|   -7.920747|   -8.002156|   -8.269641|   -8.134822|   -7.813069|   -8.690164|    2.173152|
|        5165|  6.7255e+00|   -7.921953|   -8.003041|   -8.270859|   -8.136313|   -7.814226|   -8.690618|    2.173153|
|        5166|  6.7255e+00|   -7.923193|   -8.003933|   -8.272094|   -8.137811|   -7.815397|   -8.691066|    2.173154|
|        5167|  6.7255e+00|   -7.924468|   -8.004830|   -8.273346|   -8.139313|   -7.816580|   -8.691508|    2.173155|
|        5168|  6.7254e+00|   -7.925776|   -8.005730|   -8.274614|   -8.140818|   -7.817776|   -8.691944|    2.173156|
|        5169|  6.7254e+00|   -7.927120|   -8.006633|   -8.275899|   -8.142324|   -7.818983|   -8.692375|    2.173157|
|        5170|  6.7254e+00|   -7.928497|   -8.007537|   -8.277200|   -8.143830|   -7.820202|   -8.692799|    2.173157|
|        5171|  6.7254e+00|   -7.929910|   -8.008440|   -8.278515|   -8.145334|   -7.821432|   -8.693216|    2.173158|
|        5172|  6.7253e+00|   -7.931357|   -8.009341|   -8.279846|   -8.146835|   -7.822672|   -8.693628|    2.173159|
|        5173|  6.7253e+00|   -7.932840|   -8.010237|   -8.281191|   -8.148330|   -7.823921|   -8.694033|    2.173160|
|        5174|  6.7253e+00|   -7.934357|   -8.011129|   -8.282550|   -8.149819|   -7.825180|   -8.694431|    2.173160|
|        5175|  6.7253e+00|   -7.935910|   -8.012013|   -8.283923|   -8.151299|   -7.826448|   -8.694824|    2.173161|
|        5176|  6.7252e+00|   -7.937497|   -8.012889|   -8.285308|   -8.152769|   -7.827725|   -8.695209|    2.173162|
|        5177|  6.7252e+00|   -7.939120|   -8.013755|   -8.286706|   -8.154226|   -7.829009|   -8.695588|    2.173162|
|        5178|  6.7252e+00|   -7.940778|   -8.014609|   -8.288116|   -8.155671|   -7.830300|   -8.695960|    2.173163|
|        5179|  6.7251e+00|   -7.942471|   -8.015451|   -8.289537|   -8.157099|   -7.831598|   -8.696326|    2.173164|
|        5180|  6.7251e+00|   -7.944198|   -8.016278|   -8.290969|   -8.158511|   -7.832903|   -8.696685|    2.173164|
|        5181|  6.7251e+00|   -7.945961|   -8.017089|   -8.292411|   -8.159904|   -7.834213|   -8.697037|    2.173165|
|        5182|  6.7251e+00|   -7.947758|   -8.017883|   -8.293863|   -8.161276|   -7.835528|   -8.697382|    2.173165|
|        5183|  6.7250e+00|   -7.949590|   -8.018658|   -8.295323|   -8.162627|   -7.836848|   -8.697721|    2.173166|
|        5184|  6.7250e+00|   -7.951456|   -8.019414|   -8.296791|   -8.163953|   -7.838173|   -8.698052|    2.173166|
|        5185|  6.7250e+00|   -7.953356|   -8.020149|   -8.298267|   -8.165255|   -7.839501|   -8.698377|    2.173167|
|        5186|  6.7250e+00|   -7.955289|   -8.020862|   -8.299749|   -8.166529|   -7.840832|   -8.698695|    2.173167|
|        5187|  6.7249e+00|   -7.957254|   -8.021552|   -8.301238|   -8.167775|   -7.842165|   -8.699007|    2.173168|
|        5188|  6.7249e+00|   -7.959253|   -8.022218|   -8.302731|   -8.168990|   -7.843500|   -8.699311|    2.173168|
|        5189|  6.7248e+00|   -7.961282|   -8.022859|   -8.304228|   -8.170175|   -7.844837|   -8.699609|    2.173169|
|        5190|  6.7248e+00|   -7.963343|   -8.023475|   -8.305728|   -8.171326|   -7.846174|   -8.699900|    2.173169|
|        5191|  6.7248e+00|   -7.965434|   -8.024064|   -8.307231|   -8.172444|   -7.847510|   -8.700184|    2.173169|
|        5192|  6.7247e+00|   -7.967554|   -8.024627|   -8.308734|   -8.173526|   -7.848846|   -8.700462|    2.173170|
|        5193|  6.7247e+00|   -7.969702|   -8.025162|   -8.310238|   -8.174572|   -7.850180|   -8.700733|    2.173170|
|        5194|  6.7247e+00|   -7.971877|   -8.025670|   -8.311741|   -8.175579|   -7.851512|   -8.700997|    2.173170|
|        5195|  6.7247e+00|   -7.974078|   -8.026150|   -8.313242|   -8.176549|   -7.852841|   -8.701255|    2.173171|
|        5196|  6.7246e+00|   -7.976304|   -8.026602|   -8.314739|   -8.177478|   -7.854166|   -8.701506|    2.173171|
|        5197|  6.7246e+00|   -7.978554|   -8.027025|   -8.316232|   -8.178367|   -7.855485|   -8.701750|    2.173172|
|        5198|  6.7246e+00|   -7.980824|   -8.027420|   -8.317720|   -8.179214|   -7.856799|   -8.701989|    2.173172|
|        5199|  6.7245e+00|   -7.983115|   -8.027787|   -8.319200|   -8.180019|   -7.858107|   -8.702221|    2.173172|
|        5200|  6.7245e+00|   -7.985425|   -8.028126|   -8.320673|   -8.180781|   -7.859407|   -8.702447|    2.173172|
|        5201|  6.7245e+00|   -7.987750|   -8.028437|   -8.322135|   -8.181500|   -7.860698|   -8.702666|    2.173173|
|        5202|  6.7245e+00|   -7.990090|   -8.028722|   -8.323587|   -8.182175|   -7.861979|   -8.702880|    2.173173|
|        5203|  6.7244e+00|   -7.992442|   -8.028979|   -8.325026|   -8.182806|   -7.863250|   -8.703088|    2.173173|
|        5204|  6.7244e+00|   -7.994804|   -8.029210|   -8.326452|   -8.183393|   -7.864510|   -8.703289|    2.173174|
|        5205|  6.7244e+00|   -7.997173|   -8.029416|   -8.327862|   -8.183934|   -7.865756|   -8.703485|    2.173174|
|        5206|  6.7243e+00|   -7.999548|   -8.029597|   -8.329255|   -8.184431|   -7.866988|   -8.703676|    2.173174|
|        5207|  6.7243e+00|   -8.001924|   -8.029754|   -8.330630|   -8.184883|   -7.868206|   -8.703861|    2.173174|

----------------------------- Solver Exit -------------------------------
All convergence criteria satisfied.
+-----------------------------------------------------------------------+
|      Convergence Field     |     Value    |   Criterion  |  Converged |
+-----------------------------------------------------------------------+
|                    rms[Rho]|      -8.00192|          < -8|         Yes|
+-----------------------------------------------------------------------+
-------------------------------------------------------------------------
+-----------------------------------------------------------------------+
|        File Writing Summary       |              Filename             |
+-----------------------------------------------------------------------+
|SU2 binary restart                 |restart_flow.dat                   |
|Paraview                           |flow.vtu                           |
|Paraview surface                   |surface_flow.vtu                   |
+-----------------------------------------------------------------------+

------------------------- Solver Postprocessing -------------------------
Deleted CNumerics container.
Deleted CIntegration container.
Deleted CSolver container.
Deleted CIteration container.
Deleted CInterface container.
Deleted CGeometry container.
Deleted CFreeFormDefBox class.
Deleted CSurfaceMovement class.
Deleted CVolumetricMovement class.
Deleted CConfig container.
Deleted nInst container.
Deleted COutput class.
-------------------------------------------------------------------------

------------------------- Exit Success (SU2_CFD) ------------------------


scontrol show job 1228485
JobId=1228485 JobName=m1.5_aoa32
   UserId=anthonyy(3152141) GroupId=anthonyy(3152141) MCS_label=N/A
   Priority=659243 Nice=0 Account=rrg-jphickey QOS=normal
   JobState=COMPLETING Reason=None Dependency=(null)
   Requeue=0 Restarts=0 BatchFlag=1 Reboot=0 ExitCode=0:0
   RunTime=09:52:52 TimeLimit=18:00:00 TimeMin=N/A
   SubmitTime=2026-03-25T02:35:45 EligibleTime=2026-03-25T02:35:45
   AccrueTime=2026-03-25T02:35:45
   StartTime=2026-03-25T17:02:01 EndTime=2026-03-26T02:54:53 Deadline=N/A
   SuspendTime=None SecsPreSuspend=0 LastSchedEval=2026-03-25T17:02:01 Scheduler=Main
   Partition=compute AllocNode:Sid=tri-login01:1156378
   ReqNodeList=(null) ExcNodeList=(null)
   NodeList=tri[1212-1213]
   BatchHost=tri1212
   NumNodes=2 NumCPUs=384 NumTasks=128 CPUs/Task=1 ReqB:S:C:T=0:0:*:*
   ReqTRES=cpu=384,mem=1534000M,node=2,billing=384
   AllocTRES=cpu=384,mem=1534000M,node=2,billing=384
   Socks/Node=* NtasksPerN:B:S:C=64:0:*:* CoreSpec=*
   MinCPUsNode=64 MinMemoryNode=0 MinTmpDiskNode=0
   Features=(null) DelayBoot=00:00:00
   OverSubscribe=NO Contiguous=0 Licenses=(null) LicensesAlloc=(null) Network=(null)
   Command=/scratch/anthonyy/reentry/orion/config/run.sh
   SubmitLine=SBATCH --comment /opt/slurm/bin/sbatch --export=NONE --get-user-env --job-name m1.5_aoa32 --nodes 2 --ntasks-per-node 64 --cpus-per-task 1 --mem 0 --time 18:00:00 --account rrg-jphickey --output orion_%j.out --error orion_%j.err --chdir /scratch/anthonyy/reentry/orion/cases/m1.5_aoa32 /scratch/anthonyy/reentry/orion/config/run.sh /scratch/anthonyy/reentry/orion/config/generated/m1.5_aoa32.cfg --export=NONE --get-user-env --job-name m1.5_aoa32 --nodes 2 --ntasks-per-node 64 --cpus-per-task 1 --mem 0 --time 18:00:00 --account rrg-jphickey --output orion_%j.out --error orion_%j.err --chdir /scratch/anthonyy/reentry/orion/cases/m1.5_aoa32 /scratch/anthonyy/reentry/orion/config/run.sh /scratch/anthonyy/reentry/orion/config/generated/m1.5_aoa32.cfg
   WorkDir=/scratch/anthonyy/reentry/orion/cases/m1.5_aoa32
   Comment=/opt/slurm/bin/sbatch --export=NONE --get-user-env --job-name m1.5_aoa32 --nodes 2 --ntasks-per-node 64 --cpus-per-task 1 --mem 0 --time 18:00:00 --account rrg-jphickey --output orion_%j.out --error orion_%j.err --chdir /scratch/anthonyy/reentry/orion/cases/m1.5_aoa32 /scratch/anthonyy/reentry/orion/config/run.sh /scratch/anthonyy/reentry/orion/config/generated/m1.5_aoa32.cfg
   StdErr=/scratch/anthonyy/reentry/orion/cases/m1.5_aoa32/orion_1228485.err
   StdIn=/dev/null
   StdOut=/scratch/anthonyy/reentry/orion/cases/m1.5_aoa32/orion_1228485.out
   TresPerTask=cpu=1

sacct -j 1228485
JobID           JobName    Account    Elapsed  MaxVMSize     MaxRSS  SystemCPU    UserCPU ExitCode 
------------ ---------- ---------- ---------- ---------- ---------- ---------- ---------- -------- 
1228485      m1.5_aoa32 rrg-jphic+   09:52:52                         00:00:00   00:00:00      0:0 
1228485.bat+      batch rrg-jphic+   09:52:52                         00:00:00   00:00:00      0:0 
1228485.ext+     extern rrg-jphic+   09:52:52                         00:00:00   00:00:00      0:0 
1228485.0       SU2_CFD rrg-jphic+   09:52:48                         00:00:00   00:00:00      0:0 

