Nodes:  tri[1019,1056]
Tasks:  128
NPN:    64
Config: /scratch/anthonyy/reentry/orion/config/generated/m3_medium.cfg

-------------------------------------------------------------------------
|    ___ _   _ ___                                                      |
|   / __| | | |_  )   Release 7.5.1 "Blackbird"                         |
|   \__ \ |_| |/ /                                                      |
|   |___/\___//___|   Suite (Computational Fluid Dynamics Code)         |
|                                                                       |
-------------------------------------------------------------------------
| SU2 Project Website: https://su2code.github.io                        |
|                                                                       |
| The SU2 Project is maintained by the SU2 Foundation                   |
| (http://su2foundation.org)                                            |
-------------------------------------------------------------------------
| Copyright 2012-2023, SU2 Contributors                                 |
|                                                                       |
| SU2 is free software; you can redistribute it and/or                  |
| modify it under the terms of the GNU Lesser General Public            |
| License as published by the Free Software Foundation; either          |
| version 2.1 of the License, or (at your option) any later version.    |
|                                                                       |
| SU2 is distributed in the hope that it will be useful,                |
| but WITHOUT ANY WARRANTY; without even the implied warranty of        |
| MERCHANTABILITY or FITNESS FOR A PARTICULAR PURPOSE. See the GNU      |
| Lesser General Public License for more details.                       |
|                                                                       |
| You should have received a copy of the GNU Lesser General Public      |
| License along with SU2. If not, see <http://www.gnu.org/licenses/>.   |
-------------------------------------------------------------------------

Parsing config file for zone 0

----------------- Physical Case Definition ( Zone 0 ) -------------------
Compressible RANS equations.
Turbulence model: Spalart-Allmaras-noft2
Hybrid RANS/LES: No Hybrid RANS/LES
Mach number: 3.
Angle of attack (AoA): 0 deg, and angle of sideslip (AoS): 0 deg.
Reynolds number: 3.43114e+08. Reference length 5.
No restart solution, use the values at infinity (freestream).
Non-Dimensional simulation (V=1.0, Rho=1.0, T=1.0 at the farfield).
The reference area will be computed using y(2D) or z(3D) projection.
The semi-span will be computed using the max y(3D) value.
The reference length is 0.64607 m.
Reference origin for moment evaluation is (0.25, 0, 0).
Surface(s) where the force coefficients are evaluated: ORION_SURFACE.

Input mesh file name: ../../mesh/medium.su2

--------------- Space Numerical Integration ( Zone 0 ) ------------------
Jameson-Schmidt-Turkel scheme (2nd order in space) for the flow inviscid terms.
JST viscous coefficients (2nd & 4th): 0.5, 0.02.
The method includes a grid stretching correction (p = 0.3).
Scalar upwind solver for the turbulence model.
First order integration in space.
Average of gradients with correction (viscous flow terms).
Average of gradients with correction (viscous turbulence terms).
Gradient for upwind reconstruction: Green-Gauss.
Gradient for viscous and source terms: Green-Gauss.

--------------- Time Numerical Integration  ( Zone 0 ) ------------------
Local time stepping (steady state simulation).
Euler implicit method for the flow equations.
FGMRES is used for solving the linear system.
Using a ILU(0) preconditioning.
Convergence criteria of the linear solver: 1e-06.
Max number of linear iterations: 100.
CFL adaptation. Factor down: 0.5, factor up: 1.2,
                lower limit: 0.1, upper limit: 3,
                acceptable linear residual: 0.001.
Courant-Friedrichs-Lewy number:        1
Euler implicit time integration for the turbulence model.

------------------ Convergence Criteria  ( Zone 0 ) ---------------------
Maximum number of solver subiterations: 999999.
Begin convergence monitoring at iteration 5.
Residual minimum value: 1e-8.
Cauchy series min. value: 1e-10.
Number of Cauchy elements: 100.
Begin windowed time average at iteration 0.

-------------------- Output Information ( Zone 0 ) ----------------------
File writing frequency: 
+------------------------------------+
|                     File| Frequency|
+------------------------------------+
|                  RESTART|       150|
|                 PARAVIEW|       150|
|         SURFACE_PARAVIEW|       150|
+------------------------------------+
Writing the convergence history file every 1 inner iterations.
Writing the screen convergence history every 1 inner iterations.
The tabular file format is CSV (.csv).
Convergence history file name: history.
Forces breakdown file name: forces_breakdown.dat.
Surface file name: surface_flow.
Volume file name: flow.
Restart file name: restart_flow.

------------- Config File Boundary Information ( Zone 0 ) ---------------
+-----------------------------------------------------------------------+
|                        Marker Type|                        Marker Name|
+-----------------------------------------------------------------------+
|                          Far-field|                           FARFIELD|
+-----------------------------------------------------------------------+
|                     Heat flux wall|                      ORION_SURFACE|
+-----------------------------------------------------------------------+

-------------------- Output Preprocessing ( Zone 0 ) --------------------

WARNING: SURFACE_PRESSURE_DROP can only be computed for at least 2 surfaces (outlet, inlet, ...)

Screen output fields: INNER_ITER, WALL_TIME, RMS_DENSITY, RMS_MOMENTUM-X, RMS_MOMENTUM-Y, RMS_MOMENTUM-Z, RMS_ENERGY, RMS_NU_TILDE, DRAG
History output group(s): ITER, RMS_RES
Convergence field(s): RMS_DENSITY
Warning: No (valid) fields chosen for time convergence monitoring. Time convergence monitoring inactive.
Volume output fields: MACH, PRESSURE, TEMPERATURE, DENSITY, HEAT_FLUX, Y_PLUS, COORDINATES, SOLUTION

------------------- Geometry Preprocessing ( Zone 0 ) -------------------
Three dimensional problem.
26648118 grid points before partitioning.
74775078 volume elements before partitioning.
2 surface markers.
1778 boundary elements in index 0 (Marker = FARFIELD).
811194 boundary elements in index 1 (Marker = ORION_SURFACE).
Executing the partitioning functions.
Building the graph adjacency structure.
Calling ParMETIS... graph partitioning complete (2763415 edge cuts).
Distributing ParMETIS coloring.
Rebalancing vertices.
Rebalancing volume element connectivity.
Rebalancing markers and surface elements.
29624692 vertices including ghost points. 
78760198 interior elements including halo cells. 
33893606 tetrahedra.
44681610 prisms.
184982 pyramids.
Establishing MPI communication patterns.
Setting point connectivity.
Renumbering points (Reverse Cuthill McKee Ordering).
Recomputing point connectivity.
Setting element connectivity.
Checking the numerical grid orientation.
All volume elements are correctly orientend.
All surface elements are correctly orientend.
Identifying edges and vertices.
Setting the control volume structure.
Volume of the computational grid: 535139.
Searching for the closest normal neighbors to the surfaces.
Storing a mapping from global to local point index.
Compute the surface curvature.
Max K: 137.039. Mean K: 3.89106. Standard deviation K: 7.38179.
Checking for periodicity.
Computing mesh quality statistics for the dual control volumes.
+--------------------------------------------------------------+
|           Mesh Quality Metric|        Minimum|        Maximum|
+--------------------------------------------------------------+
|    Orthogonality Angle (deg.)|        54.3699|             90|
|     CV Face Area Aspect Ratio|        1.00113|         100241|
|           CV Sub-Volume Ratio|         1.0025|        34.9431|
+--------------------------------------------------------------+
Finding max control volume width.
Communicating number of neighbors.
Reference area = 11.5308 m^2.
Semi-span length = 2.49998 m.
Wetted area = 57.9043 m^2.
Area projection in the x-plane = 19.6335 m^2, y-plane = 11.5309 m^2, z-plane = 11.5308 m^2.
Max. coordinate in the x-direction = 2.575 m, y-direction = 2.49998 m, z-direction = 2.5 m.
Min. coordinate in the x-direction = -0.71 m, y-direction = -2.49999 m, z-direction = -2.49999 m.
Computing wall distances.

-------------------- Solver Preprocessing ( Zone 0 ) --------------------
Viscous flow: Computing pressure using the ideal gas law
based on the free-stream temperature and a density computed
from the Reynolds number.
Force coefficients computed using free-stream values.

-- Models:
+------------------------------------------------------------------------------+
|          Viscosity Model|        Conductivity Model|              Fluid Model|
+------------------------------------------------------------------------------+
|               SUTHERLAND|          CONSTANT_PRANDTL|             STANDARD_AIR|
+------------------------------------------------------------------------------+
-- Fluid properties:
+------------------------------------------------------------------------------+
|                  Name|    Dim. value|    Ref. value|      Unit|Non-dim. value|
+------------------------------------------------------------------------------+
|        Ref. Viscosity|     1.716e-05|       1227.87|   N.s/m^2|   1.39755e-08|
|      Sutherland Temp.|        273.15|        288.15|         K|      0.947944|
|     Sutherland Const.|         110.4|        288.15|         K|      0.383134|
+------------------------------------------------------------------------------+
|        Prandtl (Lam.)|             -|             -|         -|          0.72|
|       Prandtl (Turb.)|             -|             -|         -|           0.9|
+------------------------------------------------------------------------------+
|          Gas Constant|       287.058|       3616.93|  N.m/kg.K|     0.0793651|
|      Spec. Heat Ratio|             -|             -|         -|           1.4|
+------------------------------------------------------------------------------+
-- Initial and free-stream conditions:
+------------------------------------------------------------------------------+
|                  Name|    Dim. value|    Ref. value|      Unit|Non-dim. value|
+------------------------------------------------------------------------------+
|       Static Pressure|       99485.6|   1.25352e+06|        Pa|     0.0793651|
|               Density|       1.20274|       1.20274|    kg/m^3|             1|
|           Temperature|        288.15|        288.15|         K|             1|
|          Total Energy|        727899|   1.04222e+06|   m^2/s^2|      0.698413|
|            Velocity-X|       1020.89|       1020.89|       m/s|             1|
|            Velocity-Y|             0|       1020.89|       m/s|             0|
|            Velocity-Z|             0|       1020.89|       m/s|             0|
|    Velocity Magnitude|       1020.89|       1020.89|       m/s|             1|
+------------------------------------------------------------------------------+
|             Viscosity|    1.7893e-05|       1227.87|   N.s/m^2|   1.45724e-08|
|          Conductivity|             -|   4.44111e+06|   W/m^2.K|             -|
|     Turb. Kin. Energy|       3908.32|   1.04222e+06|   m^2/s^2|       0.00375|
|     Spec. Dissipation|   2.62712e+07|       1020.89|       1/s|       25733.6|
+------------------------------------------------------------------------------+
|           Mach Number|             -|             -|         -|             3|
|       Reynolds Number|             -|             -|         -|   3.43114e+08|
+------------------------------------------------------------------------------+
Initialize Jacobian structure (Navier-Stokes). MG level: 0.
Initialize Jacobian structure (SA model).

------------------- Numerics Preprocessing ( Zone 0 ) -------------------

----------------- Integration Preprocessing ( Zone 0 ) ------------------

------------------- Iteration Preprocessing ( Zone 0 ) ------------------
Euler/Navier-Stokes/RANS fluid iteration.

------------------------------ Begin Solver -----------------------------

Simulation Run using the Single-zone Driver
WARNING: SU2 was not compiled for an AVX-capable architecture. Performance could be better,
         see https://su2code.github.io/docs_v7/Build-SU2-Linux-MacOS/#compiler-optimizations
+--------------------------------------------------------------------------------------------------------------------+
|  Inner_Iter|   Time(sec)|    rms[Rho]|   rms[RhoU]|   rms[RhoV]|   rms[RhoW]|   rms[RhoE]|     rms[nu]|          CD|
+--------------------------------------------------------------------------------------------------------------------+
|           0|  3.2594e+00|   -4.889437|  -15.790904|  -16.895906|  -16.895792|   -4.998582|  -12.422626|    0.784524|
|           1|  3.0991e+00|   -5.037556|   -5.070203|   -6.079355|   -6.079151|   -5.152902|  -12.440896|    1.117477|
|           2|  3.0240e+00|   -5.038515|   -5.128741|   -6.166506|   -6.166146|   -5.139359|  -12.602445|    1.464802|
|           3|  2.9923e+00|   -5.029401|   -5.174932|   -6.175431|   -6.174965|   -5.118687|  -12.724536|    1.842477|
|           4|  3.0273e+00|   -5.015946|   -5.228964|   -6.142986|   -6.142477|   -5.095322|  -12.806055|    2.265422|
|           5|  3.0781e+00|   -5.003364|   -5.303347|   -6.100138|   -6.099606|   -5.074248|  -12.868478|    2.746951|
|           6|  3.1486e+00|   -4.994735|   -5.396856|   -6.052006|   -6.051455|   -5.059585|  -12.913968|    3.299478|
|           7|  3.2134e+00|   -4.993040|   -5.473898|   -5.988465|   -5.987948|   -5.055558|  -12.943288|    3.870488|
|           8|  3.2674e+00|   -5.008617|   -5.483432|   -5.912158|   -5.911715|   -5.072859|  -12.943153|    4.494696|
|           9|  3.3004e+00|   -5.047813|   -5.438556|   -5.826085|   -5.825712|   -5.115838|  -12.914263|    5.130794|
|          10|  3.3482e+00|   -5.111445|   -5.368750|   -5.739388|   -5.739043|   -5.189500|  -12.872392|    5.668270|
|          11|  3.3932e+00|   -5.150785|   -5.294591|   -5.664909|   -5.664558|   -5.237160|  -12.860033|    5.897355|
|          12|  3.4211e+00|   -5.110833|   -5.244424|   -5.621635|   -5.621299|   -5.174989|  -12.835419|    5.679969|
|          13|  3.4441e+00|   -5.039613|   -5.245323|   -5.608069|   -5.607757|   -5.077514|  -12.806879|    5.015414|
|          14|  3.4519e+00|   -4.976163|   -5.311983|   -5.607115|   -5.606815|   -4.999808|  -12.805761|    4.128516|
|          15|  3.4722e+00|   -4.939378|   -5.423536|   -5.577415|   -5.577098|   -4.959810|  -12.820142|    3.315334|
|          16|  3.4939e+00|   -4.937169|   -5.450174|   -5.539293|   -5.538987|   -4.958873|  -12.801140|    2.683701|
|          17|  3.5110e+00|   -4.964146|   -5.390432|   -5.527659|   -5.527383|   -4.986365|  -12.740326|    2.362864|
|          18|  3.5275e+00|   -5.010824|   -5.351967|   -5.548466|   -5.548220|   -5.036392|  -12.686344|    2.375101|
|          19|  3.5401e+00|   -5.050236|   -5.345317|   -5.576183|   -5.575919|   -5.087291|  -12.671786|    2.623311|
|          20|  3.5617e+00|   -5.063738|   -5.369471|   -5.598729|   -5.598446|   -5.107586|  -12.682216|    2.984083|
|          21|  3.5695e+00|   -5.042393|   -5.402548|   -5.597261|   -5.596951|   -5.079940|  -12.683303|    3.349848|
|          22|  3.5890e+00|   -5.035461|   -5.418533|   -5.604941|   -5.604639|   -5.072088|  -12.684626|    3.650990|
|          23|  3.6054e+00|   -5.046492|   -5.442177|   -5.619395|   -5.619128|   -5.083221|  -12.685310|    3.833635|
|          24|  3.6144e+00|   -5.060489|   -5.490581|   -5.638774|   -5.638523|   -5.096736|  -12.659394|    3.878286|
|          25|  3.6260e+00|   -5.082128|   -5.515279|   -5.652410|   -5.652136|   -5.126167|  -12.619944|    3.818371|
|          26|  3.6289e+00|   -5.099125|   -5.469793|   -5.644199|   -5.643888|   -5.153929|  -12.593516|    3.727425|
|          27|  3.6410e+00|   -5.091894|   -5.423093|   -5.619356|   -5.619023|   -5.146861|  -12.586991|    3.669527|
|          28|  3.6465e+00|   -5.063881|   -5.404545|   -5.598934|   -5.598624|   -5.112172|  -12.588339|    3.672336|
|          29|  3.6525e+00|   -5.040305|   -5.413882|   -5.594166|   -5.593896|   -5.081805|  -12.594519|    3.729099|
|          30|  3.6564e+00|   -5.030396|   -5.451435|   -5.601434|   -5.601187|   -5.064462|  -12.605524|    3.810831|
|          31|  3.6591e+00|   -5.038118|   -5.502246|   -5.619524|   -5.619293|   -5.069038|  -12.591989|    3.882907|
|          32|  3.6634e+00|   -5.061253|   -5.511184|   -5.633545|   -5.633283|   -5.098990|  -12.551240|    3.919233|
|          33|  3.6659e+00|   -5.083590|   -5.453883|   -5.628242|   -5.627932|   -5.133824|  -12.518651|    3.911543|
|          34|  3.6686e+00|   -5.082154|   -5.399757|   -5.607844|   -5.607523|   -5.136145|  -12.510252|    3.871276|
|          35|  3.6735e+00|   -5.054896|   -5.385431|   -5.590610|   -5.590305|   -5.101989|  -12.515471|    3.821919|
|          36|  3.6789e+00|   -5.028232|   -5.404928|   -5.586685|   -5.586423|   -5.066259|  -12.525549|    3.785932|
|          37|  3.6819e+00|   -5.019815|   -5.447673|   -5.598006|   -5.597764|   -5.050163|  -12.544845|    3.775180|
|          38|  3.6845e+00|   -5.034029|   -5.489438|   -5.622285|   -5.622047|   -5.063021|  -12.544377|    3.788467|
|          39|  3.6885e+00|   -5.063018|   -5.478912|   -5.636559|   -5.636285|   -5.100734|  -12.506515|    3.815312|
|          40|  3.6902e+00|   -5.083860|   -5.413343|   -5.625617|   -5.625278|   -5.134254|  -12.471930|    3.842797|
|          41|  3.6920e+00|   -5.074608|   -5.356711|   -5.603011|   -5.602684|   -5.127609|  -12.460022|    3.861652|
|          42|  3.6934e+00|   -5.041436|   -5.338902|   -5.586666|   -5.586371|   -5.086736|  -12.463298|    3.869010|
|          43|  3.6961e+00|   -5.011638|   -5.348258|   -5.583039|   -5.582767|   -5.047397|  -12.469953|    3.867790|
|          44|  3.6984e+00|   -5.002736|   -5.364647|   -5.596905|   -5.596665|   -5.031106|  -12.485073|    3.863712|
|          45|  3.7015e+00|   -5.017451|   -5.366256|   -5.622756|   -5.622531|   -5.044778|  -12.489310|    3.861712|
|          46|  3.7041e+00|   -5.044567|   -5.332328|   -5.634362|   -5.634088|   -5.079875|  -12.456627|    3.863750|
|          47|  3.7064e+00|   -5.058928|   -5.273844|   -5.619363|   -5.619053|   -5.105280|  -12.419105|    3.868857|
|          48|  3.7067e+00|   -5.042219|   -5.223149|   -5.594876|   -5.594579|   -5.091042|  -12.397798|    3.874721|
|          49|  3.7078e+00|   -5.004789|   -5.196414|   -5.576738|   -5.576487|   -5.047119|  -12.392520|    3.879488|
|          50|  3.7082e+00|   -4.972214|   -5.185355|   -5.571606|   -5.571387|   -5.006579|  -12.393669|    3.882735|
|          51|  3.7090e+00|   -4.960189|   -5.176055|   -5.584487|   -5.584310|   -4.989075|  -12.400706|    3.885300|
|          52|  3.7091e+00|   -4.969022|   -5.159239|   -5.606837|   -5.606703|   -4.998046|  -12.404860|    3.888322|
|          53|  3.7107e+00|   -4.986914|   -5.130307|   -5.613302|   -5.613126|   -5.023403|  -12.382435|    3.892244|
|          54|  3.7112e+00|   -4.992582|   -5.093473|   -5.595073|   -5.594887|   -5.038938|  -12.349242|    3.896449|
|          55|  3.7118e+00|   -4.973976|   -5.060194|   -5.569082|   -5.568908|   -5.024013|  -12.323931|    3.899716|
|          56|  3.7131e+00|   -4.940522|   -5.038916|   -5.549077|   -5.548948|   -4.986769|  -12.312348|    3.901129|
|          57|  3.7135e+00|   -4.911177|   -5.027362|   -5.541712|   -5.541625|   -4.951748|  -12.310804|    3.900787|
|          58|  3.7145e+00|   -4.898472|   -5.018340|   -5.550750|   -5.550740|   -4.935551|  -12.314729|    3.899851|
|          59|  3.7142e+00|   -4.902844|   -5.006498|   -5.567230|   -5.567280|   -4.941157|  -12.320581|    3.899925|
|          60|  3.7149e+00|   -4.915058|   -4.989526|   -5.570591|   -5.570655|   -4.960391|  -12.310312|    3.902150|
|          61|  3.7159e+00|   -4.919073|   -4.968761|   -5.554357|   -5.554372|   -4.973177|  -12.287271|    3.906529|
|          62|  3.7156e+00|   -4.905858|   -4.949441|   -5.531569|   -5.531598|   -4.963850|  -12.265053|    3.911881|
|          63|  3.7157e+00|   -4.881188|   -4.936898|   -5.513648|   -5.513679|   -4.936498|  -12.252304|    3.916451|
|          64|  3.7163e+00|   -4.858643|   -4.931300|   -5.507032|   -5.507087|   -4.909056|  -12.251754|    3.918846|
|          65|  3.7165e+00|   -4.848820|   -4.928517|   -5.514756|   -5.514884|   -4.896275|  -12.257691|    3.918765|
|          66|  3.7166e+00|   -4.853085|   -4.924476|   -5.529101|   -5.529291|   -4.901752|  -12.267049|    3.917142|
|          67|  3.7163e+00|   -4.865102|   -4.917246|   -5.533707|   -5.533889|   -4.919977|  -12.266731|    3.915638|
|          68|  3.7158e+00|   -4.872141|   -4.907295|   -5.522484|   -5.522599|   -4.934990|  -12.253434|    3.915782|
|          69|  3.7152e+00|   -4.865748|   -4.897701|   -5.504809|   -5.504869|   -4.932578|  -12.236254|    3.918214|
|          70|  3.7158e+00|   -4.848921|   -4.892445|   -5.490392|   -5.490426|   -4.913592|  -12.223908|    3.922410|
|          71|  3.7158e+00|   -4.832211|   -4.892831|   -5.485743|   -5.485768|   -4.892057|  -12.224041|    3.926999|
|          72|  3.7161e+00|   -4.825436|   -4.896196|   -5.493960|   -5.494025|   -4.882110|  -12.232520|    3.930493|
|          73|  3.7180e+00|   -4.830964|   -4.898695|   -5.508435|   -5.508538|   -4.888366|  -12.244912|    3.932021|
|          74|  3.7204e+00|   -4.844471|   -4.898188|   -5.515275|   -5.515325|   -4.907425|  -12.251090|    3.931720|
|          75|  3.7230e+00|   -4.855105|   -4.894765|   -5.508110|   -5.508070|   -4.925834|  -12.244106|    3.930590|
|          76|  3.7230e+00|   -4.853809|   -4.890716|   -5.493929|   -5.493801|   -4.928920|  -12.229920|    3.929950|
|          77|  3.7223e+00|   -4.841692|   -4.889419|   -5.481656|   -5.481464|   -4.915003|  -12.216783|    3.930765|
|          78|  3.7222e+00|   -4.827791|   -4.892984|   -5.478018|   -5.477816|   -4.896042|  -12.214843|    3.933214|
|          79|  3.7217e+00|   -4.821768|   -4.899815|   -5.486517|   -5.486321|   -4.886332|  -12.223196|    3.936670|
|          80|  3.7212e+00|   -4.826939|   -4.905978|   -5.501519|   -5.501356|   -4.891608|  -12.236341|    3.940071|
|          81|  3.7211e+00|   -4.840580|   -4.908841|   -5.510520|   -5.510346|   -4.910212|  -12.246348|    3.942471|
|          82|  3.7210e+00|   -4.853410|   -4.908298|   -5.506537|   -5.506279|   -4.930798|  -12.243996|    3.943488|
|          83|  3.7233e+00|   -4.855662|   -4.906382|   -5.494488|   -5.494146|   -4.937853|  -12.232354|    3.943431|
|          84|  3.7257e+00|   -4.846707|   -4.906111|   -5.482610|   -5.482248|   -4.927089|  -12.219003|    3.943084|
|          85|  3.7283e+00|   -4.834472|   -4.910237|   -5.478016|   -5.477657|   -4.908870|  -12.214639|    3.943285|
|          86|  3.7306e+00|   -4.828511|   -4.918150|   -5.484645|   -5.484327|   -4.897734|  -12.221747|    3.944514|
|          87|  3.7326e+00|   -4.832966|   -4.925857|   -5.497922|   -5.497647|   -4.900575|  -12.234591|    3.946704|
|          88|  3.7346e+00|   -4.846326|   -4.929942|   -5.506771|   -5.506468|   -4.917160|  -12.246553|    3.949324|
|          89|  3.7370e+00|   -4.860730|   -4.929989|   -5.504141|   -5.503747|   -4.938561|  -12.247170|    3.951687|
|          90|  3.7389e+00|   -4.865472|   -4.927934|   -5.493366|   -5.492919|   -4.948883|  -12.236703|    3.953292|
|          91|  3.7408e+00|   -4.857839|   -4.926533|   -5.481920|   -5.481455|   -4.940781|  -12.222380|    3.954046|
|          92|  3.7424e+00|   -4.844973|   -4.928951|   -5.476845|   -5.476467|   -4.922684|  -12.214707|    3.954263|
|          93|  3.7443e+00|   -4.836661|   -4.935772|   -5.482597|   -5.482315|   -4.909130|  -12.219057|    3.954468|
|          94|  3.7465e+00|   -4.838116|   -4.943584|   -5.495594|   -5.495426|   -4.908365|  -12.231476|    3.955122|
|          95|  3.7487e+00|   -4.849081|   -4.948286|   -5.505634|   -5.505526|   -4.921397|  -12.246271|    3.956407|
|          96|  3.7504e+00|   -4.863851|   -4.948939|   -5.505078|   -5.504924|   -4.942259|  -12.252766|    3.958167|
|          97|  3.7521e+00|   -4.871785|   -4.947293|   -5.495327|   -5.495090|   -4.956053|  -12.246945|    3.960024|
|          98|  3.7535e+00|   -4.867503|   -4.945789|   -5.483151|   -5.482856|   -4.952194|  -12.234289|    3.961582|
|          99|  3.7553e+00|   -4.856123|   -4.947426|   -5.475908|   -5.475614|   -4.935920|  -12.224454|    3.962620|
|         100|  3.7567e+00|   -4.846998|   -4.953904|   -5.478816|   -5.478557|   -4.920973|  -12.224567|    3.963176|
|         101|  3.7496e+00|   -4.846287|   -4.962861|   -5.489831|   -5.489617|   -4.916996|  -12.219895|    3.963521|
|         102|  3.7376e+00|   -4.840146|   -4.967352|   -5.486688|   -5.486505|   -4.907855|  -12.211361|    3.963729|
|         103|  3.7217e+00|   -4.832372|   -4.968742|   -5.480827|   -5.480665|   -4.896977|  -12.210752|    3.963767|
|         104|  3.7061e+00|   -4.830996|   -4.968766|   -5.479732|   -5.479573|   -4.895143|  -12.209009|    3.963811|
|         105|  3.6911e+00|   -4.829546|   -4.968700|   -5.478529|   -5.478372|   -4.893231|  -12.207336|    3.963862|
|         106|  3.6760e+00|   -4.828086|   -4.968473|   -5.477243|   -5.477091|   -4.891354|  -12.205921|    3.963920|
|         107|  3.6616e+00|   -4.826742|   -4.967973|   -5.475928|   -5.475781|   -4.889711|  -12.205041|    3.963987|
|         108|  3.6490e+00|   -4.825726|   -4.967055|   -5.474675|   -5.474534|   -4.888658|  -12.205082|    3.964062|
|         109|  3.6369e+00|   -4.825388|   -4.965509|   -5.473609|   -5.473477|   -4.888734|  -12.206520|    3.964146|
|         110|  3.6251e+00|   -4.826240|   -4.963092|   -5.472878|   -5.472757|   -4.890737|  -12.209835|    3.964239|
|         111|  3.6152e+00|   -4.828920|   -4.959604|   -5.472632|   -5.472521|   -4.895656|  -12.215270|    3.964343|
|         112|  3.6052e+00|   -4.834160|   -4.954992|   -5.472894|   -5.472787|   -4.904695|  -12.222404|    3.964459|
|         113|  3.5951e+00|   -4.842482|   -4.949494|   -5.473360|   -5.473245|   -4.918680|  -12.229151|    3.964593|
|         114|  3.5869e+00|   -4.853339|   -4.943866|   -5.473207|   -5.473066|   -4.936583|  -12.231507|    3.964759|
|         115|  3.5805e+00|   -4.863711|   -4.939363|   -5.470834|   -5.470653|   -4.953084|  -12.224600|    3.964983|
|         116|  3.5740e+00|   -4.867001|   -4.937470|   -5.464176|   -5.463947|   -4.956792|  -12.205090|    3.965320|
|         117|  3.5690e+00|   -4.856122|   -4.939343|   -5.452149|   -5.451896|   -4.937126|  -12.173846|    3.965856|
|         118|  3.5644e+00|   -4.833536|   -4.945255|   -5.437645|   -5.437427|   -4.901315|  -12.145846|    3.966714|
|         119|  3.5616e+00|   -4.815726|   -4.953131|   -5.428013|   -5.427868|   -4.875218|  -12.154009|    3.968003|
|         120|  3.5606e+00|   -4.815090|   -4.960868|   -5.427306|   -5.427152|   -4.875713|  -12.184953|    3.969691|
|         121|  3.5614e+00|   -4.822414|   -4.968492|   -5.429969|   -5.429693|   -4.888519|  -12.198234|    3.971419|
|         122|  3.5625e+00|   -4.823984|   -4.975649|   -5.431562|   -5.431205|   -4.892005|  -12.198057|    3.972551|
|         123|  3.5634e+00|   -4.824064|   -4.981826|   -5.437170|   -5.436886|   -4.891934|  -12.206179|    3.972927|
|         124|  3.5644e+00|   -4.829529|   -4.986982|   -5.447293|   -5.447083|   -4.898489|  -12.216925|    3.973034|
|         125|  3.5657e+00|   -4.841079|   -4.990684|   -5.457630|   -5.457398|   -4.913084|  -12.228903|    3.973697|
|         126|  3.5675e+00|   -4.855768|   -4.991664|   -5.463488|   -5.463163|   -4.932288|  -12.238735|    3.975824|
|         127|  3.5689e+00|   -4.867847|   -4.990269|   -5.462411|   -5.462068|   -4.948447|  -12.237577|    3.980130|
|         128|  3.5700e+00|   -4.871008|   -4.988232|   -5.457842|   -5.457523|   -4.952181|  -12.229824|    3.986960|
|         129|  3.5711e+00|   -4.866953|   -4.987292|   -5.455435|   -5.455136|   -4.945827|  -12.222066|    3.996215|
|         130|  3.5722e+00|   -4.860798|   -4.988675|   -5.455072|   -5.454798|   -4.937011|  -12.218159|    4.007384|
|         131|  3.5737e+00|   -4.855267|   -4.992648|   -5.454029|   -5.453717|   -4.929912|  -12.217223|    4.019646|
|         132|  3.5764e+00|   -4.852516|   -4.997823|   -5.455516|   -5.455214|   -4.926538|  -12.216891|    4.031984|
|         133|  3.5793e+00|   -4.854839|   -5.002132|   -5.461427|   -5.461169|   -4.929200|  -12.217290|    4.043315|
|         134|  3.5821e+00|   -4.862270|   -5.003846|   -5.466439|   -5.466177|   -4.939338|  -12.219579|    4.052609|
|         135|  3.5833e+00|   -4.870516|   -5.002559|   -5.465928|   -5.465651|   -4.952191|  -12.215160|    4.059033|
|         136|  3.5854e+00|   -4.872399|   -4.998832|   -5.460355|   -5.460080|   -4.956998|  -12.208672|    4.062082|
|         137|  3.5879e+00|   -4.867578|   -4.995178|   -5.456161|   -5.455888|   -4.952283|  -12.200983|    4.061706|
|         138|  3.5887e+00|   -4.857539|   -4.994823|   -5.453729|   -5.453460|   -4.938512|  -12.193515|    4.058345|
|         139|  3.5897e+00|   -4.849213|   -4.997845|   -5.453922|   -5.453674|   -4.925965|  -12.196457|    4.052897|
|         140|  3.5909e+00|   -4.848622|   -5.001561|   -5.459284|   -5.459106|   -4.923759|  -12.203102|    4.046597|
|         141|  3.5919e+00|   -4.854822|   -5.002149|   -5.466069|   -5.465929|   -4.930965|  -12.209679|    4.040813|
|         142|  3.5934e+00|   -4.864003|   -4.998307|   -5.467418|   -5.467327|   -4.943982|  -12.209246|    4.036810|
|         143|  3.5943e+00|   -4.868386|   -4.990813|   -5.460781|   -5.460766|   -4.951887|  -12.201465|    4.035515|
|         144|  3.5953e+00|   -4.864018|   -4.981591|   -5.451869|   -5.451899|   -4.947887|  -12.194491|    4.037360|
|         145|  3.5966e+00|   -4.852621|   -4.973943|   -5.444872|   -5.445002|   -4.932806|  -12.183706|    4.042223|
|         146|  3.5974e+00|   -4.839015|   -4.968933|   -5.439299|   -5.439568|   -4.912505|  -12.179190|    4.049491|
|         147|  3.5986e+00|   -4.832056|   -4.964526|   -5.438006|   -5.438487|   -4.900594|  -12.183066|    4.058238|
|         148|  3.5995e+00|   -4.832949|   -4.956987|   -5.439375|   -5.440143|   -4.899152|  -12.187663|    4.067434|
|         149|  3.6004e+00|   -4.837651|   -4.944066|   -5.436070|   -5.437171|   -4.903867|  -12.189402|    4.076149|
|         150|  3.6018e+00|   -4.839861|   -4.926644|   -5.424081|   -5.425498|   -4.907017|  -12.181709|    4.083704|
+-----------------------------------------------------------------------+
|        File Writing Summary       |              Filename             |
+-----------------------------------------------------------------------+
|SU2 binary restart                 |restart_flow.dat                   |
|Paraview                           |flow.vtu                           |
|Paraview surface                   |surface_flow.vtu                   |
+-----------------------------------------------------------------------+
+--------------------------------------------------------------------------------------------------------------------+
|  Inner_Iter|   Time(sec)|    rms[Rho]|   rms[RhoU]|   rms[RhoV]|   rms[RhoW]|   rms[RhoE]|     rms[nu]|          CD|
+--------------------------------------------------------------------------------------------------------------------+
|         151|  3.6712e+00|   -4.833129|   -4.906832|   -5.405893|   -5.407610|   -4.899349|  -12.171609|    4.089728|
|         152|  3.6734e+00|   -4.817728|   -4.886828|   -5.387613|   -5.389707|   -4.880479|  -12.158679|    4.094142|
|         153|  3.6749e+00|   -4.797275|   -4.868022|   -5.369691|   -5.372195|   -4.854199|  -12.145793|    4.097086|
|         154|  3.6762e+00|   -4.779336|   -4.849747|   -5.353946|   -5.356935|   -4.830874|  -12.141508|    4.098817|
|         155|  3.6771e+00|   -4.767392|   -4.830147|   -5.340410|   -5.344027|   -4.815805|  -12.139795|    4.099617|
|         156|  3.6781e+00|   -4.758615|   -4.807676|   -5.325018|   -5.329272|   -4.806069|  -12.136902|    4.099730|
|         157|  3.6787e+00|   -4.748987|   -4.782542|   -5.304379|   -5.309141|   -4.797564|  -12.128218|    4.099338|
|         158|  3.6778e+00|   -4.733678|   -4.756227|   -5.279024|   -5.284180|   -4.784146|  -12.113728|    4.098560|
|         159|  3.6783e+00|   -4.711357|   -4.730069|   -5.252505|   -5.258033|   -4.763432|  -12.096759|    4.097471|
|         160|  3.6783e+00|   -4.684222|   -4.704861|   -5.226673|   -5.232569|   -4.737214|  -12.077535|    4.096121|
|         161|  3.6771e+00|   -4.656439|   -4.680770|   -5.202276|   -5.208529|   -4.710236|  -12.062208|    4.094551|
|         162|  3.6763e+00|   -4.631584|   -4.657207|   -5.180040|   -5.186696|   -4.687548|  -12.051008|    4.092793|
|         163|  3.6757e+00|   -4.609459|   -4.633428|   -5.158913|   -5.166002|   -4.669375|  -12.039671|    4.090872|
|         164|  3.6750e+00|   -4.588194|   -4.609065|   -5.136941|   -5.144377|   -4.653775|  -12.027276|    4.088796|
|         165|  3.6747e+00|   -4.565909|   -4.584499|   -5.113488|   -5.121155|   -4.638310|  -12.010077|    4.086564|
|         166|  3.6737e+00|   -4.540912|   -4.560391|   -5.089168|   -5.096981|   -4.620009|  -11.989881|    4.084170|
|         167|  3.6634e+00|   -4.513704|   -4.537182|   -5.065479|   -5.073419|   -4.598797|  -12.014179|    4.084101|
|         168|  3.6531e+00|   -4.512434|   -4.536535|   -5.064775|   -5.072695|   -4.597746|  -12.012414|    4.084017|
|         169|  3.6442e+00|   -4.510904|   -4.535772|   -5.063923|   -5.071821|   -4.596471|  -12.010247|    4.083916|
|         170|  3.6353e+00|   -4.509060|   -4.534874|   -5.062892|   -5.070762|   -4.594925|  -12.007581|    4.083793|
|         171|  3.6266e+00|   -4.506839|   -4.533818|   -5.061640|   -5.069477|   -4.593046|  -12.004300|    4.083643|
|         172|  3.6178e+00|   -4.504170|   -4.532578|   -5.060123|   -5.067920|   -4.590770|  -12.000271|    4.083460|
|         173|  3.6091e+00|   -4.500973|   -4.531120|   -5.058283|   -5.066033|   -4.588026|  -11.995383|    4.083236|
|         174|  3.6015e+00|   -4.497177|   -4.529397|   -5.056064|   -5.063758|   -4.584754|  -11.989606|    4.082962|
|         175|  3.5941e+00|   -4.492732|   -4.527344|   -5.053409|   -5.061039|   -4.580937|  -11.983042|    4.082625|
|         176|  3.5866e+00|   -4.487641|   -4.524869|   -5.050273|   -5.057832|   -4.576636|  -11.975979|    4.082209|
|         177|  3.5806e+00|   -4.482001|   -4.521843|   -5.046644|   -5.054128|   -4.572068|  -11.968913|    4.081694|
|         178|  3.5746e+00|   -4.476036|   -4.518105|   -5.042532|   -5.049947|   -4.567608|  -11.962424|    4.081054|
|         179|  3.5696e+00|   -4.470080|   -4.513497|   -5.037948|   -5.045311|   -4.563715|  -11.956810|    4.080258|
|         180|  3.5648e+00|   -4.464355|   -4.507883|   -5.032838|   -5.040178|   -4.560670|  -11.951684|    4.079265|
|         181|  3.5612e+00|   -4.458673|   -4.501099|   -5.026999|   -5.034358|   -4.558304|  -11.945573|    4.078028|
|         182|  3.5577e+00|   -4.452100|   -4.492876|   -5.019855|   -5.027273|   -4.555604|  -11.935857|    4.076492|
|         183|  3.5542e+00|   -4.442531|   -4.482911|   -5.010249|   -5.017733|   -4.550032|  -11.920499|    4.074604|
|         184|  3.5519e+00|   -4.427798|   -4.471009|   -4.996984|   -5.004509|   -4.538604|  -11.899469|    4.072320|
|         185|  3.5510e+00|   -4.408763|   -4.456712|   -4.980924|   -4.988531|   -4.522736|  -11.878236|    4.069622|
|         186|  3.5500e+00|   -4.387233|   -4.439030|   -4.963646|   -4.971469|   -4.505699|  -11.861413|    4.066688|
|         187|  3.5490e+00|   -4.364486|   -4.418707|   -4.946174|   -4.954308|   -4.488737|  -11.849707|    4.063870|
|         188|  3.5476e+00|   -4.342390|   -4.398746|   -4.929514|   -4.937885|   -4.472452|  -11.836020|    4.061137|
|         189|  3.5464e+00|   -4.320927|   -4.379574|   -4.912946|   -4.921444|   -4.456659|  -11.821479|    4.058445|
|         190|  3.5453e+00|   -4.300174|   -4.361426|   -4.896576|   -4.905109|   -4.441404|  -11.806236|    4.055760|
|         191|  3.5441e+00|   -4.280285|   -4.344411|   -4.880980|   -4.889501|   -4.426979|  -11.790796|    4.053077|
|         192|  3.5429e+00|   -4.261390|   -4.328659|   -4.866669|   -4.875166|   -4.413831|  -11.775283|    4.050429|
|         193|  3.5417e+00|   -4.243219|   -4.314239|   -4.853331|   -4.861784|   -4.401602|  -11.759687|    4.047877|
|         194|  3.5408e+00|   -4.225533|   -4.300971|   -4.840356|   -4.848725|   -4.389728|  -11.743863|    4.045498|
|         195|  3.5395e+00|   -4.208253|   -4.288662|   -4.827704|   -4.835962|   -4.377774|  -11.727535|    4.043374|
|         196|  3.5382e+00|   -4.191708|   -4.277157|   -4.815927|   -4.824074|   -4.366289|  -11.712324|    4.041589|
|         197|  3.5371e+00|   -4.176345|   -4.266304|   -4.805388|   -4.813448|   -4.356438|  -11.698883|    4.040234|
|         198|  3.5359e+00|   -4.162142|   -4.255960|   -4.795782|   -4.803765|   -4.348286|  -11.686086|    4.039421|
|         199|  3.5350e+00|   -4.148644|   -4.246018|   -4.786549|   -4.794446|   -4.340619|  -11.672587|    4.039299|
|         200|  3.5337e+00|   -4.135650|   -4.236509|   -4.777748|   -4.785558|   -4.332752|  -11.659280|    4.040045|
|         201|  3.5315e+00|   -4.123312|   -4.227539|   -4.769751|   -4.777492|   -4.325038|  -11.647468|    4.041841|
|         202|  3.5235e+00|   -4.111845|   -4.219133|   -4.762700|   -4.770392|   -4.318047|  -11.713496|    4.041896|
|         203|  3.5158e+00|   -4.111515|   -4.218919|   -4.762629|   -4.770307|   -4.317846|  -11.712208|    4.041964|
|         204|  3.5088e+00|   -4.111128|   -4.218674|   -4.762537|   -4.770198|   -4.317619|  -11.710668|    4.042048|
|         205|  3.5019e+00|   -4.110676|   -4.218397|   -4.762415|   -4.770057|   -4.317366|  -11.708829|    4.042153|
|         206|  3.4951e+00|   -4.110150|   -4.218088|   -4.762255|   -4.769873|   -4.317091|  -11.706637|    4.042285|
|         207|  3.4885e+00|   -4.109543|   -4.217749|   -4.762042|   -4.769632|   -4.316798|  -11.704029|    4.042452|
|         208|  3.4819e+00|   -4.108846|   -4.217385|   -4.761754|   -4.769311|   -4.316496|  -11.700926|    4.042666|
|         209|  3.4753e+00|   -4.108054|   -4.217007|   -4.761364|   -4.768882|   -4.316198|  -11.697231|    4.042940|
|         210|  3.4689e+00|   -4.107162|   -4.216627|   -4.760832|   -4.768303|   -4.315920|  -11.692817|    4.043297|
|         211|  3.4634e+00|   -4.106169|   -4.216263|   -4.760105|   -4.767521|   -4.315683|  -11.687536|    4.043764|
|         212|  3.4580e+00|   -4.105076|   -4.215935|   -4.759116|   -4.766468|   -4.315512|  -11.681267|    4.044383|
|         213|  3.4534e+00|   -4.103892|   -4.215658|   -4.757787|   -4.765065|   -4.315435|  -11.673953|    4.045209|
|         214|  3.4489e+00|   -4.102631|   -4.215431|   -4.756039|   -4.763235|   -4.315496|  -11.665622|    4.046324|
|         215|  3.4445e+00|   -4.101309|   -4.215224|   -4.753822|   -4.760931|   -4.315767|  -11.656352|    4.047843|
|         216|  3.4409e+00|   -4.099938|   -4.214947|   -4.751152|   -4.758173|   -4.316375|  -11.646258|    4.049927|
|         217|  3.4375e+00|   -4.098461|   -4.214417|   -4.748095|   -4.755035|   -4.317427|  -11.635506|    4.052796|
|         218|  3.4349e+00|   -4.096618|   -4.213312|   -4.744680|   -4.751550|   -4.318655|  -11.623840|    4.056723|
|         219|  3.4325e+00|   -4.093784|   -4.211124|   -4.740804|   -4.747612|   -4.318852|  -11.610572|    4.061972|
|         220|  3.4309e+00|   -4.089101|   -4.207129|   -4.736417|   -4.743173|   -4.316015|  -11.595239|    4.068594|
|         221|  3.4292e+00|   -4.082015|   -4.200498|   -4.731931|   -4.738670|   -4.308944|  -11.583673|    4.075627|
|         222|  3.4277e+00|   -4.073397|   -4.191498|   -4.728571|   -4.735357|   -4.299233|  -11.582075|    4.081355|
|         223|  3.4263e+00|   -4.065389|   -4.182170|   -4.727131|   -4.734029|   -4.290178|  -11.581821|    4.084998|
|         224|  3.4248e+00|   -4.058348|   -4.173361|   -4.726825|   -4.733877|   -4.282219|  -11.581747|    4.086011|
|         225|  3.4234e+00|   -4.052251|   -4.165577|   -4.726629|   -4.733853|   -4.274787|  -11.581094|    4.084196|
|         226|  3.4219e+00|   -4.047135|   -4.159075|   -4.725951|   -4.733348|   -4.267657|  -11.579836|    4.079746|
|         227|  3.4205e+00|   -4.043156|   -4.153938|   -4.724695|   -4.732261|   -4.261177|  -11.578787|    4.073214|
|         228|  3.4190e+00|   -4.040483|   -4.150142|   -4.723066|   -4.730809|   -4.256058|  -11.578737|    4.065416|
|         229|  3.4177e+00|   -4.039102|   -4.147507|   -4.720990|   -4.728902|   -4.252477|  -11.579241|    4.057294|
|         230|  3.4164e+00|   -4.038649|   -4.145733|   -4.717994|   -4.726044|   -4.249398|  -11.579363|    4.049770|
|         231|  3.4150e+00|   -4.038875|   -4.144518|   -4.713980|   -4.722109|   -4.246102|  -11.579271|    4.043615|
|         232|  3.4136e+00|   -4.039837|   -4.143606|   -4.709326|   -4.717490|   -4.242981|  -11.580489|    4.039360|
|         233|  3.4124e+00|   -4.041733|   -4.142811|   -4.704563|   -4.712731|   -4.240843|  -11.583466|    4.037244|
|         234|  3.4111e+00|   -4.044483|   -4.142002|   -4.699906|   -4.708044|   -4.239682|  -11.587352|    4.037222|
|         235|  3.4096e+00|   -4.047673|   -4.141104|   -4.695107|   -4.703174|   -4.238506|  -11.591125|    4.039014|
|         236|  3.4081e+00|   -4.050957|   -4.140109|   -4.690069|   -4.698023|   -4.236526|  -11.594378|    4.042187|
|         237|  3.4068e+00|   -4.054341|   -4.139083|   -4.685065|   -4.692855|   -4.233913|  -11.598353|    4.046247|
|         238|  3.4054e+00|   -4.058054|   -4.138133|   -4.680568|   -4.688163|   -4.231547|  -11.603832|    4.050722|
|         239|  3.4041e+00|   -4.062100|   -4.137314|   -4.676682|   -4.684074|   -4.229675|  -11.610201|    4.055221|
|         240|  3.4021e+00|   -4.066223|   -4.136623|   -4.673220|   -4.680390|   -4.227773|  -11.616486|    4.059460|
|         241|  3.4002e+00|   -4.070253|   -4.136070|   -4.670080|   -4.677007|   -4.225546|  -11.622285|    4.063256|
|         242|  3.3982e+00|   -4.074336|   -4.135713|   -4.667362|   -4.674028|   -4.223364|  -11.628679|    4.066503|
|         243|  3.3962e+00|   -4.078685|   -4.135569|   -4.665321|   -4.671725|   -4.221934|  -11.636295|    4.069124|
|         244|  3.3942e+00|   -4.083356|   -4.135672|   -4.664153|   -4.670303|   -4.221567|  -11.644547|    4.071043|
|         245|  3.3924e+00|   -4.088054|   -4.136054|   -4.663757|   -4.669658|   -4.221747|  -11.652433|    4.072154|
|         246|  3.3907e+00|   -4.092417|   -4.136723|   -4.663922|   -4.669576|   -4.221770|  -11.659188|    4.072316|
|         247|  3.3889e+00|   -4.096388|   -4.137703|   -4.664580|   -4.670001|   -4.221526|  -11.665205|    4.071371|
|         248|  3.3871e+00|   -4.100171|   -4.139031|   -4.665818|   -4.671028|   -4.221499|  -11.671708|    4.069172|
|         249|  3.3853e+00|   -4.103931|   -4.140715|   -4.667752|   -4.672780|   -4.222170|  -11.678979|    4.065624|
|         250|  3.3835e+00|   -4.107631|   -4.142743|   -4.670418|   -4.675285|   -4.223472|  -11.686190|    4.060715|
|         251|  3.3819e+00|   -4.111094|   -4.145066|   -4.673721|   -4.678453|   -4.224984|  -11.692504|    4.054545|
|         252|  3.3801e+00|   -4.114243|   -4.147643|   -4.677561|   -4.682181|   -4.226464|  -11.698039|    4.047324|
|         253|  3.3784e+00|   -4.117191|   -4.150446|   -4.681910|   -4.686442|   -4.228083|  -11.703604|    4.039367|
|         254|  3.3766e+00|   -4.120136|   -4.153480|   -4.686783|   -4.691259|   -4.230212|  -11.709660|    4.031061|
|         255|  3.3749e+00|   -4.123152|   -4.156761|   -4.692136|   -4.696594|   -4.232931|  -11.715699|    4.022822|
|         256|  3.3732e+00|   -4.126107|   -4.160294|   -4.697833|   -4.702321|   -4.235889|  -11.720871|    4.015050|
|         257|  3.3714e+00|   -4.128854|   -4.164076|   -4.703743|   -4.708319|   -4.238694|  -11.724859|    4.008086|
|         258|  3.3705e+00|   -4.131382|   -4.168109|   -4.709807|   -4.714500|   -4.241261|  -11.728151|    4.002178|
|         259|  3.3695e+00|   -4.133821|   -4.172423|   -4.715986|   -4.720827|   -4.243772|  -11.731304|    3.997455|
|         260|  3.3685e+00|   -4.136295|   -4.177023|   -4.722205|   -4.727219|   -4.246377|  -11.734222|    3.993924|
|         261|  3.3676e+00|   -4.138898|   -4.181923|   -4.728398|   -4.733528|   -4.249099|  -11.736564|    3.991479|
|         262|  3.3669e+00|   -4.141535|   -4.187022|   -4.734368|   -4.739629|   -4.251783|  -11.738208|    3.989923|
|         263|  3.3658e+00|   -4.144209|   -4.192309|   -4.740003|   -4.745424|   -4.254405|  -11.739277|    3.989007|
|         264|  3.3648e+00|   -4.146912|   -4.197821|   -4.745211|   -4.750805|   -4.256952|  -11.739636|    3.988464|
|         265|  3.3639e+00|   -4.149348|   -4.203575|   -4.749827|   -4.755644|   -4.259273|  -11.738944|    3.988048|
|         266|  3.3630e+00|   -4.151607|   -4.209647|   -4.753738|   -4.759780|   -4.261262|  -11.737128|    3.987555|
|         267|  3.3622e+00|   -4.153805|   -4.216100|   -4.756806|   -4.763087|   -4.262952|  -11.734445|    3.986843|
|         268|  3.3612e+00|   -4.156080|   -4.222949|   -4.758913|   -4.765444|   -4.264461|  -11.731070|    3.985831|
|         269|  3.3603e+00|   -4.158422|   -4.230159|   -4.759933|   -4.766696|   -4.265815|  -11.726872|    3.984491|
|         270|  3.3593e+00|   -4.160795|   -4.237731|   -4.759795|   -4.766711|   -4.266969|  -11.721682|    3.982836|
|         271|  3.3584e+00|   -4.163051|   -4.245570|   -4.758379|   -4.765342|   -4.267756|  -11.715502|    3.980899|
|         272|  3.3575e+00|   -4.165076|   -4.253660|   -4.755598|   -4.762455|   -4.268062|  -11.708332|    3.978717|
|         273|  3.3565e+00|   -4.166738|   -4.261961|   -4.751365|   -4.758012|   -4.267786|  -11.700053|    3.976318|
|         274|  3.3556e+00|   -4.167917|   -4.270425|   -4.745646|   -4.752025|   -4.266836|  -11.690722|    3.973704|
|         275|  3.3547e+00|   -4.168486|   -4.278967|   -4.738423|   -4.744540|   -4.265133|  -11.680466|    3.970858|
|         276|  3.3539e+00|   -4.168376|   -4.287542|   -4.729818|   -4.735670|   -4.262693|  -11.669528|    3.967734|
|         277|  3.3530e+00|   -4.167423|   -4.295963|   -4.719953|   -4.725522|   -4.259416|  -11.657918|    3.964265|
|         278|  3.3522e+00|   -4.165496|   -4.304080|   -4.708982|   -4.714162|   -4.255199|  -11.645448|    3.960371|
|         279|  3.3515e+00|   -4.162462|   -4.311743|   -4.696915|   -4.701670|   -4.249926|  -11.632257|    3.955962|
|         280|  3.3508e+00|   -4.158299|   -4.318806|   -4.683846|   -4.688187|   -4.243603|  -11.618583|    3.950943|
|         281|  3.3502e+00|   -4.153025|   -4.325135|   -4.669918|   -4.673959|   -4.236306|  -11.604632|    3.945226|
|         282|  3.3504e+00|   -4.146755|   -4.330647|   -4.655450|   -4.659316|   -4.228224|  -11.590566|    3.938727|
|         283|  3.3502e+00|   -4.139552|   -4.335277|   -4.640697|   -4.644439|   -4.219458|  -11.576419|    3.931380|
|         284|  3.3503e+00|   -4.131447|   -4.338932|   -4.625812|   -4.629426|   -4.210011|  -11.562172|    3.923132|
|         285|  3.3501e+00|   -4.122483|   -4.341488|   -4.610949|   -4.614345|   -4.199936|  -11.547883|    3.913959|
|         286|  3.3501e+00|   -4.112767|   -4.342818|   -4.596211|   -4.599268|   -4.189314|  -11.533741|    3.903864|
|         287|  3.3503e+00|   -4.102429|   -4.342881|   -4.581538|   -4.584242|   -4.178260|  -11.519945|    3.892885|
|         288|  3.3502e+00|   -4.091665|   -4.341766|   -4.566886|   -4.569405|   -4.166987|  -11.506563|    3.881103|
|         289|  3.3500e+00|   -4.080663|   -4.339596|   -4.552382|   -4.554904|   -4.155655|  -11.493716|    3.868638|
|         290|  3.3500e+00|   -4.069609|   -4.336450|   -4.538245|   -4.540880|   -4.144386|  -11.481580|    3.855654|
|         291|  3.3500e+00|   -4.058712|   -4.332368|   -4.524687|   -4.527419|   -4.133358|  -11.470301|    3.842354|
|         292|  3.3499e+00|   -4.048249|   -4.327489|   -4.512127|   -4.514662|   -4.122944|  -11.459707|    3.828969|
|         293|  3.3500e+00|   -4.038344|   -4.321994|   -4.500666|   -4.502672|   -4.113307|  -11.449669|    3.815753|
|         294|  3.3503e+00|   -4.028971|   -4.315981|   -4.490145|   -4.491426|   -4.104361|  -11.439956|    3.802964|
|         295|  3.3502e+00|   -4.020034|   -4.309519|   -4.480172|   -4.480862|   -4.095917|  -11.430766|    3.790851|
|         296|  3.3504e+00|   -4.011651|   -4.302755|   -4.470464|   -4.470986|   -4.088112|  -11.422441|    3.779636|
|         297|  3.3505e+00|   -4.003888|   -4.295913|   -4.460968|   -4.461759|   -4.081041|  -11.414914|    3.769497|
|         298|  3.3505e+00|   -3.996696|   -4.289259|   -4.451870|   -4.453054|   -4.074680|  -11.408222|    3.760553|
|         299|  3.3505e+00|   -3.989875|   -4.282874|   -4.443375|   -4.444744|   -4.068753|  -11.401928|    3.752857|
|         300|  3.3505e+00|   -3.983366|   -4.276654|   -4.435534|   -4.436863|   -4.063131|  -11.395727|    3.746383|
+-----------------------------------------------------------------------+
|        File Writing Summary       |              Filename             |
+-----------------------------------------------------------------------+
|SU2 binary restart                 |restart_flow.dat                   |
|Paraview                           |flow.vtu                           |
|Paraview surface                   |surface_flow.vtu                   |
+-----------------------------------------------------------------------+
+--------------------------------------------------------------------------------------------------------------------+
|  Inner_Iter|   Time(sec)|    rms[Rho]|   rms[RhoU]|   rms[RhoV]|   rms[RhoW]|   rms[RhoE]|     rms[nu]|          CD|
+--------------------------------------------------------------------------------------------------------------------+
|         301|  3.3857e+00|   -3.977360|   -4.270417|   -4.428291|   -4.429417|   -4.058030|  -11.389508|    3.741033|
|         302|  3.3860e+00|   -3.972061|   -4.264050|   -4.421543|   -4.422391|   -4.053688|  -11.383668|    3.736638|
|         303|  3.3863e+00|   -3.967513|   -4.257717|   -4.415290|   -4.415745|   -4.050198|  -11.378653|    3.732973|
|         304|  3.3865e+00|   -3.963554|   -4.251700|   -4.409554|   -4.409482|   -4.047389|  -11.374370|    3.729776|
|         305|  3.3866e+00|   -3.959851|   -4.246200|   -4.404180|   -4.403606|   -4.044842|  -11.370251|    3.726769|
|         306|  3.3859e+00|   -3.956149|   -4.241202|   -4.399023|   -4.397997|   -4.042164|  -11.365734|    3.723677|
|         307|  3.3855e+00|   -3.952565|   -4.236654|   -4.394004|   -4.392696|   -4.039499|  -11.360955|    3.720253|
|         308|  3.3848e+00|   -3.949433|   -4.232407|   -4.389140|   -4.387747|   -4.037234|  -11.356395|    3.716291|
|         309|  3.3843e+00|   -3.946895|   -4.228437|   -4.384430|   -4.383095|   -4.035552|  -11.352177|    3.711637|
|         310|  3.3838e+00|   -3.944928|   -4.224840|   -4.380014|   -4.378781|   -4.034482|  -11.348374|    3.706195|
|         311|  3.3831e+00|   -3.943249|   -4.221684|   -4.375949|   -4.374816|   -4.033664|  -11.344529|    3.699925|
|         312|  3.3823e+00|   -3.941636|   -4.218960|   -4.372239|   -4.371167|   -4.032806|  -11.340267|    3.692835|
|         313|  3.3816e+00|   -3.940099|   -4.216538|   -4.368859|   -4.367806|   -4.031907|  -11.335600|    3.684970|
|         314|  3.3809e+00|   -3.938755|   -4.214273|   -4.365690|   -4.364642|   -4.031101|  -11.330676|    3.676402|
|         315|  3.3803e+00|   -3.937723|   -4.212211|   -4.362712|   -4.361620|   -4.030590|  -11.325777|    3.667219|
|         316|  3.3800e+00|   -3.936975|   -4.210487|   -4.359885|   -4.358640|   -4.030349|  -11.320994|    3.657510|
|         317|  3.3794e+00|   -3.936335|   -4.209213|   -4.357118|   -4.355663|   -4.030135|  -11.316084|    3.647359|
|         318|  3.3786e+00|   -3.935685|   -4.208316|   -4.354418|   -4.352742|   -4.029762|  -11.310893|    3.636837|
|         319|  3.3778e+00|   -3.935057|   -4.207572|   -4.351717|   -4.350010|   -4.029248|  -11.305445|    3.626004|
|         320|  3.3771e+00|   -3.934679|   -4.206763|   -4.349166|   -4.347638|   -4.028904|  -11.299813|    3.614899|
|         321|  3.3764e+00|   -3.934709|   -4.205771|   -4.346884|   -4.345654|   -4.028977|  -11.294048|    3.603551|
|         322|  3.3757e+00|   -3.935053|   -4.204659|   -4.344932|   -4.343895|   -4.029402|  -11.288028|    3.591973|
|         323|  3.3748e+00|   -3.935516|   -4.203571|   -4.343255|   -4.342215|   -4.029973|  -11.281680|    3.580172|
|         324|  3.3734e+00|   -3.935841|   -4.202571|   -4.341743|   -4.340552|   -4.030348|  -11.274928|    3.568147|
|         325|  3.3720e+00|   -3.935882|   -4.201641|   -4.340248|   -4.338899|   -4.030329|  -11.267688|    3.555894|
|         326|  3.3708e+00|   -3.935734|   -4.200666|   -4.338792|   -4.337421|   -4.030041|  -11.260085|    3.543409|
|         327|  3.3696e+00|   -3.935575|   -4.199494|   -4.337424|   -4.336206|   -4.029699|  -11.252229|    3.530688|
|         328|  3.3682e+00|   -3.935598|   -4.198033|   -4.336154|   -4.335242|   -4.029547|  -11.244226|    3.517729|
|         329|  3.3668e+00|   -3.935891|   -4.196265|   -4.335062|   -4.334454|   -4.029701|  -11.236067|    3.504530|
|         330|  3.3653e+00|   -3.936394|   -4.194266|   -4.334178|   -4.333738|   -4.030107|  -11.227662|    3.491094|
|         331|  3.3639e+00|   -3.937001|   -4.192146|   -4.333538|   -4.333099|   -4.030656|  -11.218893|    3.477422|
|         332|  3.3627e+00|   -3.937584|   -4.189966|   -4.333117|   -4.332553|   -4.031208|  -11.209739|    3.463517|
|         333|  3.3614e+00|   -3.938103|   -4.187753|   -4.332861|   -4.332135|   -4.031718|  -11.200163|    3.449382|
|         334|  3.3602e+00|   -3.938528|   -4.185490|   -4.332703|   -4.331816|   -4.032136|  -11.190145|    3.435017|
|         335|  3.3595e+00|   -3.938809|   -4.183166|   -4.332557|   -4.331563|   -4.032416|  -11.179726|    3.420425|
|         336|  3.3588e+00|   -3.938968|   -4.180781|   -4.332405|   -4.331360|   -4.032598|  -11.168925|    3.405604|
|         337|  3.3582e+00|   -3.939042|   -4.178315|   -4.332230|   -4.331199|   -4.032728|  -11.157771|    3.390555|
|         338|  3.3570e+00|   -3.939072|   -4.175780|   -4.332078|   -4.331062|   -4.032860|  -11.146300|    3.375275|
|         339|  3.3558e+00|   -3.939096|   -4.173192|   -4.331968|   -4.330919|   -4.033024|  -11.134535|    3.359765|
|         340|  3.3551e+00|   -3.939137|   -4.170595|   -4.331895|   -4.330811|   -4.033231|  -11.122477|    3.344022|
|         341|  3.3544e+00|   -3.939195|   -4.168051|   -4.331870|   -4.330725|   -4.033478|  -11.110136|    3.328048|
|         342|  3.3537e+00|   -3.939289|   -4.165614|   -4.331904|   -4.330672|   -4.033771|  -11.097487|    3.311843|
|         343|  3.3530e+00|   -3.939412|   -4.163295|   -4.332028|   -4.330704|   -4.034114|  -11.084528|    3.295409|
|         344|  3.3523e+00|   -3.939584|   -4.161075|   -4.332270|   -4.330854|   -4.034532|  -11.071262|    3.278751|
|         345|  3.3516e+00|   -3.939809|   -4.158888|   -4.332605|   -4.331148|   -4.035021|  -11.057683|    3.261874|
|         346|  3.3509e+00|   -3.940091|   -4.156703|   -4.333031|   -4.331603|   -4.035591|  -11.043789|    3.244785|
|         347|  3.3503e+00|   -3.940430|   -4.154500|   -4.333542|   -4.332174|   -4.036243|  -11.029609|    3.227491|
|         348|  3.3493e+00|   -3.940776|   -4.152286|   -4.334044|   -4.332832|   -4.036911|  -11.015174|    3.210003|
|         349|  3.3481e+00|   -3.941062|   -4.150099|   -4.334485|   -4.333509|   -4.037524|  -11.000509|    3.192331|
|         350|  3.3469e+00|   -3.941286|   -4.147994|   -4.334850|   -4.334187|   -4.038080|  -10.985635|    3.174485|
|         351|  3.3456e+00|   -3.941465|   -4.145992|   -4.335132|   -4.334844|   -4.038588|  -10.970559|    3.156479|
|         352|  3.3443e+00|   -3.941605|   -4.144099|   -4.335388|   -4.335453|   -4.039051|  -10.955312|    3.138323|
|         353|  3.3431e+00|   -3.941752|   -4.142302|   -4.335704|   -4.336034|   -4.039524|  -10.939954|    3.120032|
|         354|  3.3421e+00|   -3.941945|   -4.140576|   -4.336101|   -4.336611|   -4.040041|  -10.924547|    3.101618|
|         355|  3.3409e+00|   -3.942219|   -4.138890|   -4.336626|   -4.337210|   -4.040637|  -10.909153|    3.083095|
|         356|  3.3396e+00|   -3.942590|   -4.137232|   -4.337294|   -4.337859|   -4.041337|  -10.893783|    3.064477|
|         357|  3.3384e+00|   -3.943052|   -4.135590|   -4.338101|   -4.338575|   -4.042134|  -10.878393|    3.045779|
|         358|  3.3373e+00|   -3.943564|   -4.133953|   -4.339007|   -4.339352|   -4.042983|  -10.862962|    3.027015|
|         359|  3.3335e+00|   -3.944114|   -4.132326|   -4.339985|   -4.340224|   -4.043878|  -10.866026|    3.026416|
|         360|  3.3297e+00|   -3.944071|   -4.132161|   -4.340102|   -4.340339|   -4.044032|  -10.865222|    3.025696|
|         361|  3.3258e+00|   -3.944032|   -4.131969|   -4.340241|   -4.340476|   -4.044227|  -10.864255|    3.024831|
|         362|  3.3220e+00|   -3.944002|   -4.131748|   -4.340406|   -4.340638|   -4.044473|  -10.863094|    3.023792|
|         363|  3.3186e+00|   -3.943990|   -4.131495|   -4.340601|   -4.340830|   -4.044787|  -10.861697|    3.022542|
|         364|  3.3153e+00|   -3.944009|   -4.131209|   -4.340831|   -4.341055|   -4.045189|  -10.860019|    3.021040|
|         365|  3.3121e+00|   -3.944078|   -4.130891|   -4.341099|   -4.341319|   -4.045703|  -10.858002|    3.019233|
|         366|  3.3090e+00|   -3.944221|   -4.130546|   -4.341409|   -4.341627|   -4.046363|  -10.855580|    3.017057|
|         367|  3.3058e+00|   -3.944476|   -4.130183|   -4.341767|   -4.341985|   -4.047207|  -10.852673|    3.014437|
|         368|  3.3032e+00|   -3.944885|   -4.129817|   -4.342176|   -4.342396|   -4.048279|  -10.849190|    3.011278|
|         369|  3.3005e+00|   -3.945509|   -4.129474|   -4.342637|   -4.342861|   -4.049632|  -10.845023|    3.007469|
|         370|  3.2980e+00|   -3.946408|   -4.129185|   -4.343144|   -4.343376|   -4.051306|  -10.840055|    3.002871|
|         371|  3.2955e+00|   -3.947654|   -4.128993|   -4.343696|   -4.343941|   -4.053344|  -10.834154|    2.997320|
|         372|  3.2933e+00|   -3.949295|   -4.128939|   -4.344277|   -4.344536|   -4.055738|  -10.827184|    2.990618|
|         373|  3.2913e+00|   -3.951340|   -4.129049|   -4.344860|   -4.345141|   -4.058421|  -10.819021|    2.982530|
|         374|  3.2898e+00|   -3.953722|   -4.129305|   -4.345416|   -4.345730|   -4.061224|  -10.809560|    2.972780|
|         375|  3.2883e+00|   -3.956233|   -4.129606|   -4.345903|   -4.346260|   -4.063823|  -10.798755|    2.961044|
|         376|  3.2874e+00|   -3.958484|   -4.129716|   -4.346279|   -4.346690|   -4.065720|  -10.786644|    2.946943|
|         377|  3.2864e+00|   -3.959896|   -4.129241|   -4.346497|   -4.346986|   -4.066267|  -10.773380|    2.930032|
|         378|  3.2859e+00|   -3.959760|   -4.127672|   -4.346540|   -4.347118|   -4.064768|  -10.760086|    2.911039|
|         379|  3.2855e+00|   -3.957622|   -4.124677|   -4.346559|   -4.347230|   -4.061099|  -10.748039|    2.892162|
|         380|  3.2845e+00|   -3.954113|   -4.120731|   -4.346841|   -4.347617|   -4.056458|  -10.735880|    2.873399|
|         381|  3.2835e+00|   -3.950333|   -4.116579|   -4.347416|   -4.348316|   -4.052031|  -10.723527|    2.854745|
|         382|  3.2826e+00|   -3.947165|   -4.112782|   -4.348276|   -4.349296|   -4.048661|  -10.710985|    2.836200|
|         383|  3.2818e+00|   -3.945165|   -4.109695|   -4.349376|   -4.350495|   -4.046809|  -10.698276|    2.817769|
|         384|  3.2809e+00|   -3.944519|   -4.107451|   -4.350625|   -4.351819|   -4.046542|  -10.685493|    2.799463|
|         385|  3.2800e+00|   -3.945107|   -4.106015|   -4.351954|   -4.353170|   -4.047628|  -10.672820|    2.781292|
|         386|  3.2792e+00|   -3.946637|   -4.105228|   -4.353317|   -4.354510|   -4.049701|  -10.660173|    2.763268|
|         387|  3.2783e+00|   -3.948694|   -4.104846|   -4.354687|   -4.355811|   -4.052288|  -10.647445|    2.745401|
|         388|  3.2774e+00|   -3.950830|   -4.104605|   -4.356041|   -4.357054|   -4.054913|  -10.634694|    2.727702|
|         389|  3.2765e+00|   -3.952694|   -4.104279|   -4.357386|   -4.358248|   -4.057226|  -10.622101|    2.710179|
|         390|  3.2756e+00|   -3.954075|   -4.103727|   -4.358733|   -4.359419|   -4.059029|  -10.609678|    2.692839|
|         391|  3.2747e+00|   -3.954885|   -4.102871|   -4.360058|   -4.360566|   -4.060246|  -10.597313|    2.675690|
|         392|  3.2739e+00|   -3.955201|   -4.101719|   -4.361380|   -4.361720|   -4.060976|  -10.585017|    2.658736|
|         393|  3.2731e+00|   -3.955152|   -4.100311|   -4.362688|   -4.362891|   -4.061361|  -10.572630|    2.641984|
|         394|  3.2722e+00|   -3.954885|   -4.098697|   -4.363987|   -4.364096|   -4.061559|  -10.559949|    2.625438|
|         395|  3.2712e+00|   -3.954541|   -4.096921|   -4.365283|   -4.365358|   -4.061713|  -10.547030|    2.609101|
|         396|  3.2704e+00|   -3.954176|   -4.095000|   -4.366547|   -4.366627|   -4.061874|  -10.534111|    2.592977|
|         397|  3.2695e+00|   -3.953797|   -4.092925|   -4.367764|   -4.367865|   -4.062048|  -10.521324|    2.577069|
|         398|  3.2687e+00|   -3.953372|   -4.090678|   -4.368900|   -4.369015|   -4.062199|  -10.508622|    2.561379|
|         399|  3.2678e+00|   -3.952846|   -4.088238|   -4.369915|   -4.370024|   -4.062267|  -10.495845|    2.545909|
|         400|  3.2669e+00|   -3.952176|   -4.085588|   -4.370814|   -4.370876|   -4.062217|  -10.482558|    2.530662|
|         401|  3.2660e+00|   -3.951302|   -4.082689|   -4.371585|   -4.371556|   -4.061987|  -10.468468|    2.515637|
|         402|  3.2652e+00|   -3.950180|   -4.079514|   -4.372229|   -4.372078|   -4.061540|  -10.453657|    2.500836|
|         403|  3.2644e+00|   -3.948769|   -4.076028|   -4.372755|   -4.372458|   -4.060842|  -10.438429|    2.486260|
|         404|  3.2636e+00|   -3.947037|   -4.072197|   -4.373161|   -4.372731|   -4.059872|  -10.423120|    2.471910|
|         405|  3.2628e+00|   -3.944958|   -4.067988|   -4.373441|   -4.372893|   -4.058609|  -10.408011|    2.457785|
|         406|  3.2619e+00|   -3.942520|   -4.063375|   -4.373576|   -4.372956|   -4.057049|  -10.393137|    2.443885|
|         407|  3.2610e+00|   -3.939706|   -4.058332|   -4.373537|   -4.372885|   -4.055173|  -10.378298|    2.430210|
|         408|  3.2602e+00|   -3.936500|   -4.052845|   -4.373308|   -4.372647|   -4.052964|  -10.363305|    2.416759|
|         409|  3.2594e+00|   -3.932890|   -4.046907|   -4.372865|   -4.372211|   -4.050409|  -10.348085|    2.403533|
|         410|  3.2586e+00|   -3.928862|   -4.040506|   -4.372197|   -4.371550|   -4.047493|  -10.332672|    2.390530|
|         411|  3.2578e+00|   -3.924393|   -4.033641|   -4.371285|   -4.370628|   -4.044189|  -10.317135|    2.377750|
|         412|  3.2571e+00|   -3.919484|   -4.026322|   -4.370127|   -4.369448|   -4.040500|  -10.301544|    2.365191|
|         413|  3.2562e+00|   -3.914126|   -4.018554|   -4.368706|   -4.367998|   -4.036418|  -10.285988|    2.352852|
|         414|  3.2553e+00|   -3.908321|   -4.010353|   -4.367019|   -4.366277|   -4.031941|  -10.270451|    2.340732|
|         415|  3.2545e+00|   -3.902080|   -4.001733|   -4.365076|   -4.364299|   -4.027080|  -10.254860|    2.328830|
|         416|  3.2537e+00|   -3.895405|   -3.992708|   -4.362864|   -4.362070|   -4.021830|  -10.239157|    2.317145|
|         417|  3.2529e+00|   -3.888293|   -3.983289|   -4.360373|   -4.359595|   -4.016183|  -10.223402|    2.305673|
|         418|  3.2521e+00|   -3.880761|   -3.973499|   -4.357597|   -4.356882|   -4.010146|  -10.207672|    2.294415|
|         419|  3.2513e+00|   -3.872822|   -3.963357|   -4.354529|   -4.353927|   -4.003717|  -10.192029|    2.283367|
|         420|  3.2506e+00|   -3.864495|   -3.952883|   -4.351174|   -4.350711|   -3.996898|  -10.176532|    2.272528|
|         421|  3.2499e+00|   -3.855823|   -3.942119|   -4.347548|   -4.347232|   -3.989715|  -10.161237|    2.261897|
|         422|  3.2493e+00|   -3.846845|   -3.931104|   -4.343667|   -4.343483|   -3.982188|  -10.146194|    2.251470|
|         423|  3.2486e+00|   -3.837601|   -3.919878|   -4.339543|   -4.339475|   -3.974344|  -10.131456|    2.241247|
|         424|  3.2479e+00|   -3.828128|   -3.908478|   -4.335186|   -4.335227|   -3.966204|  -10.117063|    2.231226|
|         425|  3.2471e+00|   -3.818479|   -3.896955|   -4.330616|   -4.330760|   -3.957808|  -10.103038|    2.221405|
|         426|  3.2464e+00|   -3.808703|   -3.885356|   -4.325846|   -4.326094|   -3.949190|  -10.089389|    2.211782|
|         427|  3.2457e+00|   -3.798853|   -3.873731|   -4.320902|   -4.321261|   -3.940398|  -10.076120|    2.202357|
|         428|  3.2450e+00|   -3.788959|   -3.862107|   -4.315803|   -4.316278|   -3.931458|  -10.063232|    2.193127|
|         429|  3.2442e+00|   -3.779068|   -3.850530|   -4.310575|   -4.311171|   -3.922411|  -10.050720|    2.184092|
|         430|  3.2434e+00|   -3.769229|   -3.839045|   -4.305252|   -4.305972|   -3.913305|  -10.038580|    2.175250|
|         431|  3.2427e+00|   -3.759477|   -3.827687|   -4.299854|   -4.300708|   -3.904174|  -10.026806|    2.166601|
|         432|  3.2420e+00|   -3.749844|   -3.816486|   -4.294409|   -4.295399|   -3.895054|  -10.015380|    2.158144|
|         433|  3.2413e+00|   -3.740357|   -3.805467|   -4.288933|   -4.290062|   -3.885971|  -10.004311|    2.149877|
|         434|  3.2406e+00|   -3.731036|   -3.794646|   -4.283451|   -4.284697|   -3.876947|   -9.993614|    2.141800|
|         435|  3.2398e+00|   -3.721902|   -3.784046|   -4.277973|   -4.279322|   -3.868008|   -9.983327|    2.133913|
|         436|  3.2390e+00|   -3.712988|   -3.773702|   -4.272531|   -4.273958|   -3.859196|   -9.973487|    2.126213|
|         437|  3.2383e+00|   -3.704315|   -3.763637|   -4.267138|   -4.268631|   -3.850536|   -9.964162|    2.118702|
|         438|  3.2376e+00|   -3.695891|   -3.753858|   -4.261821|   -4.263353|   -3.842052|   -9.955432|    2.111378|
|         439|  3.2369e+00|   -3.687744|   -3.744397|   -4.256606|   -4.258144|   -3.833775|   -9.947410|    2.104241|
|         440|  3.2362e+00|   -3.679897|   -3.735276|   -4.251512|   -4.253024|   -3.825731|   -9.940224|    2.097289|
|         441|  3.2356e+00|   -3.672325|   -3.726469|   -4.246527|   -4.247981|   -3.817911|   -9.934029|    2.090524|
|         442|  3.2326e+00|   -3.665040|   -3.717991|   -4.241668|   -4.243035|   -3.810339|   -9.938646|    2.090306|
|         443|  3.2297e+00|   -3.664918|   -3.717838|   -4.241670|   -4.243020|   -3.810300|   -9.938295|    2.090046|
|         444|  3.2267e+00|   -3.664779|   -3.717664|   -4.241665|   -4.242995|   -3.810263|   -9.937877|    2.089733|
|         445|  3.2243e+00|   -3.664623|   -3.717469|   -4.241651|   -4.242956|   -3.810231|   -9.937379|    2.089358|
|         446|  3.2218e+00|   -3.664449|   -3.717254|   -4.241622|   -4.242898|   -3.810210|   -9.936788|    2.088909|
|         447|  3.2193e+00|   -3.664258|   -3.717022|   -4.241569|   -4.242812|   -3.810211|   -9.936087|    2.088370|
|         448|  3.2169e+00|   -3.664056|   -3.716778|   -4.241481|   -4.242685|   -3.810245|   -9.935259|    2.087724|
|         449|  3.2144e+00|   -3.663846|   -3.716533|   -4.241342|   -4.242501|   -3.810330|   -9.934285|    2.086951|
|         450|  3.2121e+00|   -3.663638|   -3.716299|   -4.241130|   -4.242238|   -3.810489|   -9.933147|    2.086023|
+-----------------------------------------------------------------------+
|        File Writing Summary       |              Filename             |
+-----------------------------------------------------------------------+
|SU2 binary restart                 |restart_flow.dat                   |
|Paraview                           |flow.vtu                           |
|Paraview surface                   |surface_flow.vtu                   |
+-----------------------------------------------------------------------+
+--------------------------------------------------------------------------------------------------------------------+
|  Inner_Iter|   Time(sec)|    rms[Rho]|   rms[RhoU]|   rms[RhoV]|   rms[RhoW]|   rms[RhoE]|     rms[nu]|          CD|
+--------------------------------------------------------------------------------------------------------------------+
|         451|  3.2347e+00|   -3.663445|   -3.716096|   -4.240818|   -4.241867|   -3.810752|   -9.931824|    2.084912|
|         452|  3.2331e+00|   -3.663279|   -3.715944|   -4.240367|   -4.241348|   -3.811151|   -9.930301|    2.083581|
|         453|  3.2315e+00|   -3.663148|   -3.715861|   -4.239730|   -4.240634|   -3.811717|   -9.928568|    2.081987|
|         454|  3.2298e+00|   -3.663053|   -3.715852|   -4.238853|   -4.239671|   -3.812467|   -9.926629|    2.080081|
|         455|  3.2286e+00|   -3.662964|   -3.715889|   -4.237674|   -4.238398|   -3.813382|   -9.924504|    2.077804|
|         456|  3.2273e+00|   -3.662794|   -3.715868|   -4.236129|   -4.236752|   -3.814358|   -9.922250|    2.075093|
|         457|  3.2260e+00|   -3.662371|   -3.715574|   -4.234167|   -4.234692|   -3.815164|   -9.919977|    2.071874|
|         458|  3.2250e+00|   -3.661382|   -3.714608|   -4.231762|   -4.232184|   -3.815353|   -9.917891|    2.068073|
|         459|  3.2241e+00|   -3.659352|   -3.712351|   -4.228923|   -4.229235|   -3.814210|   -9.916330|    2.063607|
|         460|  3.2236e+00|   -3.655642|   -3.707974|   -4.225677|   -4.225873|   -3.810750|   -9.915859|    2.058397|
|         461|  3.2230e+00|   -3.649561|   -3.700588|   -4.222034|   -4.222105|   -3.803863|   -9.917623|    2.052725|
|         462|  3.2225e+00|   -3.641373|   -3.690521|   -4.218311|   -4.218269|   -3.793735|   -9.922007|    2.047263|
|         463|  3.2218e+00|   -3.632935|   -3.680081|   -4.215170|   -4.215032|   -3.782870|   -9.927305|    2.042006|
|         464|  3.2214e+00|   -3.624880|   -3.670116|   -4.212386|   -4.212119|   -3.772289|   -9.933027|    2.036950|
|         465|  3.2207e+00|   -3.617573|   -3.661118|   -4.209707|   -4.209281|   -3.762627|   -9.938728|    2.032091|
|         466|  3.2203e+00|   -3.611188|   -3.653320|   -4.206994|   -4.206347|   -3.754224|   -9.943871|    2.027430|
|         467|  3.2197e+00|   -3.605703|   -3.646705|   -4.204145|   -4.203222|   -3.747132|   -9.947941|    2.022967|
|         468|  3.2192e+00|   -3.600998|   -3.641128|   -4.201138|   -4.199925|   -3.741246|   -9.950534|    2.018705|
|         469|  3.2186e+00|   -3.596896|   -3.636362|   -4.198023|   -4.196478|   -3.736346|   -9.951288|    2.014647|
|         470|  3.2180e+00|   -3.593212|   -3.632165|   -4.194848|   -4.192965|   -3.732174|   -9.949999|    2.010797|
|         471|  3.2175e+00|   -3.589776|   -3.628311|   -4.191702|   -4.189471|   -3.728480|   -9.946623|    2.007157|
|         472|  3.2169e+00|   -3.586486|   -3.624659|   -4.188685|   -4.186130|   -3.725095|   -9.941270|    2.003730|
|         473|  3.2164e+00|   -3.583249|   -3.621079|   -4.185819|   -4.182991|   -3.721849|   -9.934196|    2.000520|
|         474|  3.2159e+00|   -3.580053|   -3.617532|   -4.183172|   -4.180102|   -3.718673|   -9.925780|    1.997529|
|         475|  3.2153e+00|   -3.576891|   -3.613998|   -4.180766|   -4.177486|   -3.715521|   -9.916450|    1.994758|
|         476|  3.2146e+00|   -3.573778|   -3.610487|   -4.178601|   -4.175173|   -3.712391|   -9.906663|    1.992210|
|         477|  3.2140e+00|   -3.570746|   -3.607033|   -4.176684|   -4.173143|   -3.709308|   -9.896789|    1.989885|
|         478|  3.2135e+00|   -3.567824|   -3.603668|   -4.174987|   -4.171380|   -3.706295|   -9.887017|    1.987785|
|         479|  3.2129e+00|   -3.565048|   -3.600431|   -4.173501|   -4.169875|   -3.703398|   -9.877484|    1.985908|
|         480|  3.2122e+00|   -3.562426|   -3.597337|   -4.172178|   -4.168585|   -3.700621|   -9.868112|    1.984255|
|         481|  3.2115e+00|   -3.559970|   -3.594405|   -4.171006|   -4.167491|   -3.697989|   -9.858913|    1.982824|
|         482|  3.2108e+00|   -3.557704|   -3.591665|   -4.169975|   -4.166599|   -3.695538|   -9.849779|    1.981614|
|         483|  3.2103e+00|   -3.555639|   -3.589129|   -4.169082|   -4.165887|   -3.693279|   -9.840658|    1.980623|
|         484|  3.2097e+00|   -3.553785|   -3.586809|   -4.168327|   -4.165348|   -3.691227|   -9.831454|    1.979848|
|         485|  3.2091e+00|   -3.552136|   -3.584705|   -4.167715|   -4.164971|   -3.689382|   -9.822035|    1.979288|
|         486|  3.2086e+00|   -3.550676|   -3.582805|   -4.167209|   -4.164727|   -3.687729|   -9.812426|    1.978939|
|         487|  3.2079e+00|   -3.549406|   -3.581111|   -4.166793|   -4.164615|   -3.686270|   -9.802781|    1.978800|
|         488|  3.2072e+00|   -3.548344|   -3.579636|   -4.166493|   -4.164644|   -3.685025|   -9.793274|    1.978868|
|         489|  3.2066e+00|   -3.547509|   -3.578397|   -4.166315|   -4.164859|   -3.684018|   -9.784127|    1.979142|
|         490|  3.2059e+00|   -3.546873|   -3.577367|   -4.166254|   -4.165226|   -3.683218|   -9.775529|    1.979619|
|         491|  3.2053e+00|   -3.546404|   -3.576518|   -4.166329|   -4.165680|   -3.682591|   -9.767588|    1.980298|
|         492|  3.2047e+00|   -3.546079|   -3.575828|   -4.166503|   -4.166220|   -3.682110|   -9.760388|    1.981179|
|         493|  3.2041e+00|   -3.545879|   -3.575279|   -4.166756|   -4.166829|   -3.681755|   -9.754014|    1.982259|
|         494|  3.2034e+00|   -3.545834|   -3.574893|   -4.167132|   -4.167535|   -3.681555|   -9.748337|    1.983539|
|         495|  3.2028e+00|   -3.545952|   -3.574682|   -4.167682|   -4.168366|   -3.681530|   -9.743357|    1.985018|
|         496|  3.2022e+00|   -3.546235|   -3.574651|   -4.168400|   -4.169362|   -3.681687|   -9.739244|    1.986694|
|         497|  3.2016e+00|   -3.546687|   -3.574802|   -4.169320|   -4.170489|   -3.682028|   -9.736175|    1.988569|
|         498|  3.2011e+00|   -3.547304|   -3.575132|   -4.170390|   -4.171750|   -3.682541|   -9.734234|    1.990640|
|         499|  3.2006e+00|   -3.548102|   -3.575653|   -4.171616|   -4.173146|   -3.683238|   -9.733324|    1.992906|
|         500|  3.2000e+00|   -3.549032|   -3.576324|   -4.172962|   -4.174609|   -3.684064|   -9.733404|    1.995367|
|         501|  3.1995e+00|   -3.550070|   -3.577124|   -4.174412|   -4.176111|   -3.684997|   -9.734296|    1.998021|
|         502|  3.1991e+00|   -3.551276|   -3.578100|   -4.176051|   -4.177695|   -3.686102|   -9.735859|    2.000866|
|         503|  3.1985e+00|   -3.552603|   -3.579214|   -4.177792|   -4.179320|   -3.687323|   -9.737959|    2.003899|
|         504|  3.1980e+00|   -3.554032|   -3.580451|   -4.179600|   -4.180979|   -3.688640|   -9.740376|    2.007117|
|         505|  3.1974e+00|   -3.555569|   -3.581814|   -4.181484|   -4.182668|   -3.690059|   -9.743036|    2.010519|
|         506|  3.1969e+00|   -3.557214|   -3.583307|   -4.183443|   -4.184378|   -3.691581|   -9.745863|    2.014100|
|         507|  3.1963e+00|   -3.558997|   -3.584955|   -4.185503|   -4.186173|   -3.693242|   -9.748721|    2.017857|
|         508|  3.1958e+00|   -3.560895|   -3.586745|   -4.187671|   -4.188040|   -3.695027|   -9.751475|    2.021787|
|         509|  3.1953e+00|   -3.562922|   -3.588683|   -4.189958|   -4.190019|   -3.696949|   -9.754041|    2.025885|
|         510|  3.1948e+00|   -3.565049|   -3.590748|   -4.192322|   -4.192086|   -3.698975|   -9.756347|    2.030149|
|         511|  3.1942e+00|   -3.567288|   -3.592946|   -4.194783|   -4.194258|   -3.701117|   -9.758329|    2.034574|
|         512|  3.1937e+00|   -3.569611|   -3.595251|   -4.197323|   -4.196519|   -3.703345|   -9.759925|    2.039157|
|         513|  3.1932e+00|   -3.572048|   -3.597690|   -4.199959|   -4.198922|   -3.705690|   -9.761080|    2.043894|
|         514|  3.1926e+00|   -3.574563|   -3.600229|   -4.202643|   -4.201434|   -3.708114|   -9.761776|    2.048782|
|         515|  3.1921e+00|   -3.577126|   -3.602842|   -4.205339|   -4.204031|   -3.710584|   -9.762025|    2.053819|
|         516|  3.1915e+00|   -3.579768|   -3.605551|   -4.208076|   -4.206749|   -3.713132|   -9.761873|    2.058999|
|         517|  3.1910e+00|   -3.582520|   -3.608379|   -4.210877|   -4.209642|   -3.715793|   -9.761389|    2.064321|
|         518|  3.1904e+00|   -3.585344|   -3.611288|   -4.213731|   -4.212624|   -3.718520|   -9.760671|    2.069781|
|         519|  3.1900e+00|   -3.588236|   -3.614273|   -4.216626|   -4.215679|   -3.721306|   -9.759776|    2.075375|
|         520|  3.1899e+00|   -3.591206|   -3.617337|   -4.219589|   -4.218805|   -3.724159|   -9.758754|    2.081101|
|         521|  3.1899e+00|   -3.594243|   -3.620473|   -4.222613|   -4.221983|   -3.727067|   -9.757639|    2.086955|
|         522|  3.1898e+00|   -3.597360|   -3.623691|   -4.225708|   -4.225208|   -3.730042|   -9.756424|    2.092933|
|         523|  3.1897e+00|   -3.600597|   -3.627021|   -4.228910|   -4.228500|   -3.733123|   -9.755110|    2.099032|
|         524|  3.1896e+00|   -3.603918|   -3.630441|   -4.232184|   -4.231847|   -3.736276|   -9.753688|    2.105247|
|         525|  3.1895e+00|   -3.607333|   -3.633957|   -4.235545|   -4.235260|   -3.739513|   -9.752149|    2.111576|
|         526|  3.1894e+00|   -3.610846|   -3.637571|   -4.239000|   -4.238754|   -3.742836|   -9.750485|    2.118014|
|         527|  3.1892e+00|   -3.614439|   -3.641269|   -4.242516|   -4.242303|   -3.746225|   -9.748681|    2.124557|
|         528|  3.1891e+00|   -3.618105|   -3.645045|   -4.246084|   -4.245895|   -3.749673|   -9.746724|    2.131201|
|         529|  3.1889e+00|   -3.621858|   -3.648910|   -4.249721|   -4.249541|   -3.753192|   -9.744607|    2.137941|
|         530|  3.1888e+00|   -3.625675|   -3.652843|   -4.253396|   -4.253202|   -3.756753|   -9.742332|    2.144775|
|         531|  3.1887e+00|   -3.629565|   -3.656850|   -4.257126|   -4.256885|   -3.760372|   -9.739909|    2.151697|
|         532|  3.1885e+00|   -3.633524|   -3.660926|   -4.260892|   -4.260585|   -3.764040|   -9.737361|    2.158704|
|         533|  3.1884e+00|   -3.637538|   -3.665063|   -4.264663|   -4.264295|   -3.767747|   -9.734705|    2.165793|
|         534|  3.1882e+00|   -3.641643|   -3.669300|   -4.268448|   -4.268068|   -3.771532|   -9.731952|    2.172960|
|         535|  3.1880e+00|   -3.645811|   -3.673615|   -4.272256|   -4.271875|   -3.775372|   -9.729110|    2.180202|
|         536|  3.1878e+00|   -3.650053|   -3.678018|   -4.276119|   -4.275716|   -3.779279|   -9.726204|    2.187517|
|         537|  3.1877e+00|   -3.654371|   -3.682512|   -4.280047|   -4.279588|   -3.783255|   -9.723254|    2.194901|
|         538|  3.1876e+00|   -3.658760|   -3.687090|   -4.284001|   -4.283508|   -3.787297|   -9.720286|    2.202351|
[...]
|        6392|  3.1774e+00|   -7.960193|   -7.971897|   -8.597840|   -8.531515|   -8.071769|   -9.917453|    2.530647|
|        6393|  3.1773e+00|   -7.959903|   -7.970575|   -8.599387|   -8.532818|   -8.070577|   -9.918298|    2.530647|
|        6394|  3.1773e+00|   -7.959603|   -7.969241|   -8.600955|   -8.534198|   -8.069373|   -9.918979|    2.530647|
|        6395|  3.1772e+00|   -7.959293|   -7.967898|   -8.602543|   -8.535654|   -8.068162|   -9.919484|    2.530647|
|        6396|  3.1772e+00|   -7.958974|   -7.966550|   -8.604148|   -8.537183|   -8.066946|   -9.919804|    2.530647|
|        6397|  3.1771e+00|   -7.958647|   -7.965199|   -8.605768|   -8.538784|   -8.065730|   -9.919927|    2.530647|
|        6398|  3.1771e+00|   -7.958313|   -7.963848|   -8.607398|   -8.540454|   -8.064518|   -9.919846|    2.530647|
|        6399|  3.1770e+00|   -7.957971|   -7.962501|   -8.609036|   -8.542190|   -8.063313|   -9.919553|    2.530647|
|        6400|  3.1770e+00|   -7.957623|   -7.961161|   -8.610679|   -8.543989|   -8.062118|   -9.919041|    2.530647|
|        6401|  3.1769e+00|   -7.957268|   -7.959829|   -8.612323|   -8.545847|   -8.060936|   -9.918308|    2.530647|
|        6402|  3.1769e+00|   -7.956907|   -7.958508|   -8.613965|   -8.547761|   -8.059772|   -9.917349|    2.530647|
|        6403|  3.1768e+00|   -7.956541|   -7.957200|   -8.615601|   -8.549727|   -8.058627|   -9.916163|    2.530647|
|        6404|  3.1768e+00|   -7.956169|   -7.955909|   -8.617229|   -8.551741|   -8.057504|   -9.914752|    2.530647|
|        6405|  3.1767e+00|   -7.955792|   -7.954635|   -8.618843|   -8.553797|   -8.056407|   -9.913116|    2.530647|
|        6406|  3.1767e+00|   -7.955409|   -7.953381|   -8.620441|   -8.555891|   -8.055337|   -9.911260|    2.530647|
|        6407|  3.1766e+00|   -7.955022|   -7.952148|   -8.622019|   -8.558018|   -8.054297|   -9.909189|    2.530647|
|        6408|  3.1766e+00|   -7.954629|   -7.950938|   -8.623573|   -8.560173|   -8.053289|   -9.906908|    2.530647|
|        6409|  3.1765e+00|   -7.954232|   -7.949752|   -8.625099|   -8.562349|   -8.052315|   -9.904427|    2.530647|
|        6410|  3.1765e+00|   -7.953830|   -7.948592|   -8.626594|   -8.564542|   -8.051376|   -9.901754|    2.530647|
|        6411|  3.1765e+00|   -7.953423|   -7.947458|   -8.628054|   -8.566744|   -8.050475|   -9.898900|    2.530647|
|        6412|  3.1764e+00|   -7.953011|   -7.946353|   -8.629475|   -8.568949|   -8.049614|   -9.895875|    2.530647|
|        6413|  3.1764e+00|   -7.952594|   -7.945276|   -8.630855|   -8.571151|   -8.048792|   -9.892692|    2.530647|
|        6414|  3.1763e+00|   -7.952173|   -7.944229|   -8.632188|   -8.573344|   -8.048012|   -9.889363|    2.530647|
|        6415|  3.1763e+00|   -7.951746|   -7.943212|   -8.633473|   -8.575519|   -8.047274|   -9.885902|    2.530647|
|        6416|  3.1762e+00|   -7.951314|   -7.942227|   -8.634707|   -8.577671|   -8.046580|   -9.882321|    2.530647|
|        6417|  3.1762e+00|   -7.950877|   -7.941272|   -8.635885|   -8.579792|   -8.045930|   -9.878635|    2.530647|
|        6418|  3.1761e+00|   -7.950435|   -7.940349|   -8.637005|   -8.581875|   -8.045324|   -9.874857|    2.530647|
|        6419|  3.1761e+00|   -7.949988|   -7.939458|   -8.638066|   -8.583912|   -8.044764|   -9.871002|    2.530646|
|        6420|  3.1761e+00|   -7.949536|   -7.938599|   -8.639063|   -8.585898|   -8.044249|   -9.867083|    2.530646|
|        6421|  3.1760e+00|   -7.949079|   -7.937773|   -8.639996|   -8.587824|   -8.043780|   -9.863113|    2.530646|
|        6422|  3.1760e+00|   -7.948616|   -7.936979|   -8.640863|   -8.589685|   -8.043356|   -9.859106|    2.530646|
|        6423|  3.1760e+00|   -7.948149|   -7.936218|   -8.641661|   -8.591473|   -8.042978|   -9.855075|    2.530646|
|        6424|  3.1759e+00|   -7.947677|   -7.935488|   -8.642390|   -8.593181|   -8.042646|   -9.851031|    2.530646|
|        6425|  3.1759e+00|   -7.947200|   -7.934791|   -8.643049|   -8.594804|   -8.042359|   -9.846988|    2.530646|
|        6426|  3.1758e+00|   -7.946718|   -7.934126|   -8.643637|   -8.596336|   -8.042117|   -9.842957|    2.530645|
|        6427|  3.1758e+00|   -7.946233|   -7.933492|   -8.644153|   -8.597771|   -8.041919|   -9.838948|    2.530645|
|        6428|  3.1758e+00|   -7.945743|   -7.932889|   -8.644597|   -8.599105|   -8.041765|   -9.834972|    2.530645|
|        6429|  3.1757e+00|   -7.945249|   -7.932318|   -8.644971|   -8.600331|   -8.041654|   -9.831038|    2.530645|
|        6430|  3.1757e+00|   -7.944752|   -7.931777|   -8.645273|   -8.601448|   -8.041586|   -9.827157|    2.530645|
|        6431|  3.1756e+00|   -7.944252|   -7.931266|   -8.645506|   -8.602450|   -8.041559|   -9.823337|    2.530644|
|        6432|  3.1756e+00|   -7.943750|   -7.930785|   -8.645670|   -8.603335|   -8.041572|   -9.819586|    2.530644|
|        6433|  3.1756e+00|   -7.943245|   -7.930333|   -8.645766|   -8.604101|   -8.041626|   -9.815912|    2.530644|
|        6434|  3.1755e+00|   -7.942739|   -7.929909|   -8.645797|   -8.604746|   -8.041717|   -9.812321|    2.530644|
|        6435|  3.1755e+00|   -7.942232|   -7.929514|   -8.645764|   -8.605269|   -8.041847|   -9.808822|    2.530643|
|        6436|  3.1754e+00|   -7.941725|   -7.929147|   -8.645670|   -8.605669|   -8.042012|   -9.805419|    2.530643|
|        6437|  3.1754e+00|   -7.941219|   -7.928807|   -8.645517|   -8.605948|   -8.042213|   -9.802118|    2.530643|
|        6438|  3.1753e+00|   -7.940714|   -7.928494|   -8.645307|   -8.606105|   -8.042448|   -9.798925|    2.530642|
|        6439|  3.1753e+00|   -7.940212|   -7.928207|   -8.645045|   -8.606144|   -8.042715|   -9.795845|    2.530642|
|        6440|  3.1753e+00|   -7.939712|   -7.927947|   -8.644732|   -8.606065|   -8.043014|   -9.792881|    2.530642|
|        6441|  3.1752e+00|   -7.939217|   -7.927711|   -8.644372|   -8.605873|   -8.043344|   -9.790039|    2.530641|
|        6442|  3.1752e+00|   -7.938727|   -7.927501|   -8.643969|   -8.605570|   -8.043701|   -9.787321|    2.530641|
|        6443|  3.1752e+00|   -7.938244|   -7.927316|   -8.643526|   -8.605162|   -8.044087|   -9.784731|    2.530640|
|        6444|  3.1751e+00|   -7.937768|   -7.927155|   -8.643047|   -8.604652|   -8.044499|   -9.782272|    2.530640|
|        6445|  3.1751e+00|   -7.937301|   -7.927019|   -8.642535|   -8.604045|   -8.044936|   -9.779946|    2.530640|
|        6446|  3.1750e+00|   -7.936844|   -7.926907|   -8.641995|   -8.603349|   -8.045396|   -9.777757|    2.530639|
|        6447|  3.1750e+00|   -7.936399|   -7.926818|   -8.641430|   -8.602568|   -8.045879|   -9.775705|    2.530639|
|        6448|  3.1749e+00|   -7.935965|   -7.926753|   -8.640845|   -8.601708|   -8.046383|   -9.773794|    2.530638|
|        6449|  3.1749e+00|   -7.935546|   -7.926712|   -8.640243|   -8.600777|   -8.046907|   -9.772024|    2.530638|
|        6450|  3.1748e+00|   -7.935143|   -7.926694|   -8.639629|   -8.599782|   -8.047450|   -9.770398|    2.530637|
+-----------------------------------------------------------------------+
|        File Writing Summary       |              Filename             |
+-----------------------------------------------------------------------+
|SU2 binary restart                 |restart_flow.dat                   |
|Paraview                           |flow.vtu                           |
|Paraview surface                   |surface_flow.vtu                   |
+-----------------------------------------------------------------------+
+--------------------------------------------------------------------------------------------------------------------+
|  Inner_Iter|   Time(sec)|    rms[Rho]|   rms[RhoU]|   rms[RhoV]|   rms[RhoW]|   rms[RhoE]|     rms[nu]|          CD|
+--------------------------------------------------------------------------------------------------------------------+
|        6451|  3.1765e+00|   -7.934756|   -7.926701|   -8.639006|   -8.598729|   -8.048011|   -9.768916|    2.530637|
|        6452|  3.1765e+00|   -7.934388|   -7.926731|   -8.638378|   -8.597626|   -8.048588|   -9.767579|    2.530636|
|        6453|  3.1765e+00|   -7.934040|   -7.926785|   -8.637750|   -8.596479|   -8.049182|   -9.766388|    2.530635|
|        6454|  3.1765e+00|   -7.933713|   -7.926863|   -8.637124|   -8.595298|   -8.049790|   -9.765344|    2.530635|
|        6455|  3.1765e+00|   -7.933409|   -7.926965|   -8.636505|   -8.594088|   -8.050412|   -9.764446|    2.530634|
|        6456|  3.1765e+00|   -7.933130|   -7.927093|   -8.635896|   -8.592857|   -8.051048|   -9.763696|    2.530633|
|        6457|  3.1765e+00|   -7.932877|   -7.927245|   -8.635301|   -8.591613|   -8.051696|   -9.763094|    2.530633|
|        6458|  3.1765e+00|   -7.932652|   -7.927424|   -8.634724|   -8.590362|   -8.052356|   -9.762638|    2.530632|
|        6459|  3.1764e+00|   -7.932456|   -7.927628|   -8.634167|   -8.589112|   -8.053028|   -9.762330|    2.530631|
|        6460|  3.1764e+00|   -7.932291|   -7.927860|   -8.633635|   -8.587870|   -8.053710|   -9.762168|    2.530631|
|        6461|  3.1764e+00|   -7.932159|   -7.928119|   -8.633129|   -8.586641|   -8.054403|   -9.762152|    2.530630|
|        6462|  3.1764e+00|   -7.932061|   -7.928405|   -8.632653|   -8.585433|   -8.055107|   -9.762281|    2.530629|
|        6463|  3.1763e+00|   -7.931999|   -7.928721|   -8.632209|   -8.584251|   -8.055821|   -9.762555|    2.530628|
|        6464|  3.1763e+00|   -7.931975|   -7.929067|   -8.631801|   -8.583102|   -8.056544|   -9.762972|    2.530627|
|        6465|  3.1763e+00|   -7.931988|   -7.929443|   -8.631431|   -8.581992|   -8.057278|   -9.763531|    2.530627|
|        6466|  3.1763e+00|   -7.932042|   -7.929850|   -8.631100|   -8.580925|   -8.058022|   -9.764231|    2.530626|
|        6467|  3.1762e+00|   -7.932138|   -7.930289|   -8.630812|   -8.579906|   -8.058775|   -9.765070|    2.530625|
|        6468|  3.1762e+00|   -7.932276|   -7.930761|   -8.630568|   -8.578941|   -8.059539|   -9.766046|    2.530624|
|        6469|  3.1762e+00|   -7.932458|   -7.931267|   -8.630371|   -8.578035|   -8.060314|   -9.767157|    2.530623|
|        6470|  3.1761e+00|   -7.932686|   -7.931807|   -8.630220|   -8.577191|   -8.061100|   -9.768402|    2.530622|
|        6471|  3.1761e+00|   -7.932961|   -7.932383|   -8.630120|   -8.576413|   -8.061897|   -9.769778|    2.530621|
|        6472|  3.1761e+00|   -7.933282|   -7.932996|   -8.630069|   -8.575705|   -8.062706|   -9.771282|    2.530620|
|        6473|  3.1760e+00|   -7.933653|   -7.933646|   -8.630071|   -8.575070|   -8.063527|   -9.772912|    2.530619|
|        6474|  3.1760e+00|   -7.934074|   -7.934335|   -8.630125|   -8.574512|   -8.064362|   -9.774665|    2.530618|
|        6475|  3.1760e+00|   -7.934545|   -7.935063|   -8.630232|   -8.574034|   -8.065210|   -9.776537|    2.530617|
|        6476|  3.1760e+00|   -7.935068|   -7.935832|   -8.630394|   -8.573637|   -8.066074|   -9.778526|    2.530616|
|        6477|  3.1759e+00|   -7.935644|   -7.936642|   -8.630610|   -8.573324|   -8.066953|   -9.780628|    2.530615|
|        6478|  3.1759e+00|   -7.936274|   -7.937496|   -8.630880|   -8.573098|   -8.067849|   -9.782839|    2.530614|
|        6479|  3.1759e+00|   -7.936958|   -7.938392|   -8.631205|   -8.572959|   -8.068763|   -9.785154|    2.530613|
|        6480|  3.1758e+00|   -7.937697|   -7.939334|   -8.631585|   -8.572909|   -8.069696|   -9.787569|    2.530612|
|        6481|  3.1758e+00|   -7.938492|   -7.940322|   -8.632019|   -8.572949|   -8.070649|   -9.790081|    2.530610|
|        6482|  3.1758e+00|   -7.939343|   -7.941357|   -8.632507|   -8.573081|   -8.071624|   -9.792682|    2.530609|
|        6483|  3.1757e+00|   -7.940252|   -7.942439|   -8.633049|   -8.573305|   -8.072621|   -9.795369|    2.530608|
|        6484|  3.1757e+00|   -7.941217|   -7.943571|   -8.633643|   -8.573620|   -8.073642|   -9.798136|    2.530607|
|        6485|  3.1757e+00|   -7.942240|   -7.944752|   -8.634290|   -8.574027|   -8.074688|   -9.800976|    2.530606|
|        6486|  3.1757e+00|   -7.943320|   -7.945983|   -8.634987|   -8.574526|   -8.075760|   -9.803884|    2.530604|
|        6487|  3.1756e+00|   -7.944459|   -7.947266|   -8.635734|   -8.575116|   -8.076860|   -9.806852|    2.530603|
|        6488|  3.1756e+00|   -7.945654|   -7.948600|   -8.636530|   -8.575797|   -8.077988|   -9.809875|    2.530602|
|        6489|  3.1756e+00|   -7.946907|   -7.949987|   -8.637372|   -8.576567|   -8.079145|   -9.812944|    2.530601|
|        6490|  3.1755e+00|   -7.948217|   -7.951427|   -8.638261|   -8.577424|   -8.080333|   -9.816053|    2.530599|
|        6491|  3.1755e+00|   -7.949584|   -7.952920|   -8.639192|   -8.578368|   -8.081553|   -9.819194|    2.530598|
|        6492|  3.1755e+00|   -7.951007|   -7.954466|   -8.640166|   -8.579396|   -8.082806|   -9.822357|    2.530597|
|        6493|  3.1754e+00|   -7.952485|   -7.956067|   -8.641180|   -8.580506|   -8.084092|   -9.825536|    2.530595|
|        6494|  3.1754e+00|   -7.954018|   -7.957721|   -8.642231|   -8.581695|   -8.085412|   -9.828721|    2.530594|
|        6495|  3.1754e+00|   -7.955604|   -7.959430|   -8.643317|   -8.582960|   -8.086768|   -9.831903|    2.530592|
|        6496|  3.1753e+00|   -7.957243|   -7.961192|   -8.644437|   -8.584299|   -8.088161|   -9.835074|    2.530591|
|        6497|  3.1753e+00|   -7.958934|   -7.963009|   -8.645587|   -8.585707|   -8.089590|   -9.838224|    2.530590|
|        6498|  3.1753e+00|   -7.960675|   -7.964879|   -8.646764|   -8.587181|   -8.091057|   -9.841343|    2.530588|
|        6499|  3.1752e+00|   -7.962464|   -7.966802|   -8.647966|   -8.588717|   -8.092562|   -9.844423|    2.530587|
|        6500|  3.1752e+00|   -7.964301|   -7.968778|   -8.649190|   -8.590311|   -8.094106|   -9.847454|    2.530585|
|        6501|  3.1752e+00|   -7.966184|   -7.970807|   -8.650433|   -8.591958|   -8.095689|   -9.850426|    2.530584|
|        6502|  3.1751e+00|   -7.968110|   -7.972887|   -8.651692|   -8.593652|   -8.097311|   -9.853331|    2.530582|
|        6503|  3.1751e+00|   -7.970078|   -7.975017|   -8.652964|   -8.595389|   -8.098973|   -9.856158|    2.530581|
|        6504|  3.1751e+00|   -7.972086|   -7.977197|   -8.654245|   -8.597162|   -8.100674|   -9.858899|    2.530580|
|        6505|  3.1750e+00|   -7.974131|   -7.979426|   -8.655533|   -8.598966|   -8.102415|   -9.861546|    2.530578|
|        6506|  3.1750e+00|   -7.976210|   -7.981701|   -8.656824|   -8.600795|   -8.104195|   -9.864089|    2.530577|
|        6507|  3.1750e+00|   -7.978323|   -7.984022|   -8.658115|   -8.602642|   -8.106014|   -9.866522|    2.530575|
|        6508|  3.1749e+00|   -7.980465|   -7.986388|   -8.659402|   -8.604502|   -8.107872|   -9.868837|    2.530574|
|        6509|  3.1749e+00|   -7.982635|   -7.988795|   -8.660684|   -8.606367|   -8.109768|   -9.871026|    2.530572|
|        6510|  3.1749e+00|   -7.984829|   -7.991242|   -8.661955|   -8.608231|   -8.111702|   -9.873086|    2.530571|
|        6511|  3.1748e+00|   -7.987045|   -7.993728|   -8.663214|   -8.610087|   -8.113672|   -9.875009|    2.530569|
|        6512|  3.1748e+00|   -7.989279|   -7.996249|   -8.664457|   -8.611927|   -8.115678|   -9.876791|    2.530567|
|        6513|  3.1747e+00|   -7.991528|   -7.998804|   -8.665681|   -8.613744|   -8.117718|   -9.878429|    2.530566|
|        6514|  3.1747e+00|   -7.993789|   -8.001390|   -8.666883|   -8.615531|   -8.119792|   -9.879920|    2.530564|
|        6515|  3.1746e+00|   -7.996058|   -8.004003|   -8.668061|   -8.617279|   -8.121897|   -9.881263|    2.530563|
|        6516|  3.1746e+00|   -7.998332|   -8.006641|   -8.669211|   -8.618983|   -8.124032|   -9.882455|    2.530561|
|        6517|  3.1746e+00|   -8.000608|   -8.009300|   -8.670331|   -8.620635|   -8.126196|   -9.883498|    2.530560|

----------------------------- Solver Exit -------------------------------
All convergence criteria satisfied.
+-----------------------------------------------------------------------+
|      Convergence Field     |     Value    |   Criterion  |  Converged |
+-----------------------------------------------------------------------+
|                    rms[Rho]|      -8.00061|          < -8|         Yes|
+-----------------------------------------------------------------------+
-------------------------------------------------------------------------
+-----------------------------------------------------------------------+
|        File Writing Summary       |              Filename             |
+-----------------------------------------------------------------------+
|SU2 binary restart                 |restart_flow.dat                   |
|Paraview                           |flow.vtu                           |
|Paraview surface                   |surface_flow.vtu                   |
+-----------------------------------------------------------------------+

------------------------- Solver Postprocessing -------------------------
Deleted CNumerics container.
Deleted CIntegration container.
Deleted CSolver container.
Deleted CIteration container.
Deleted CInterface container.
Deleted CGeometry container.
Deleted CFreeFormDefBox class.
Deleted CSurfaceMovement class.
Deleted CVolumetricMovement class.
Deleted CConfig container.
Deleted nInst container.
Deleted COutput class.
-------------------------------------------------------------------------

------------------------- Exit Success (SU2_CFD) ------------------------


scontrol show job 1178737
JobId=1178737 JobName=m3_medium
   UserId=anthonyy(3152141) GroupId=anthonyy(3152141) MCS_label=N/A
   Priority=531094 Nice=0 Account=rrg-jphickey QOS=normal
   JobState=COMPLETING Reason=None Dependency=(null)
   Requeue=0 Restarts=0 BatchFlag=1 Reboot=0 ExitCode=0:0
   RunTime=05:48:05 TimeLimit=18:00:00 TimeMin=N/A
   SubmitTime=2026-03-15T00:56:14 EligibleTime=2026-03-15T00:56:14
   AccrueTime=2026-03-15T00:56:14
   StartTime=2026-03-15T01:24:34 EndTime=2026-03-15T07:12:39 Deadline=N/A
   SuspendTime=None SecsPreSuspend=0 LastSchedEval=2026-03-15T01:24:34 Scheduler=Main
   Partition=compute AllocNode:Sid=tri-login06:1449538
   ReqNodeList=(null) ExcNodeList=(null)
   NodeList=tri[1019,1056]
   BatchHost=tri1019
   NumNodes=2 NumCPUs=384 NumTasks=128 CPUs/Task=1 ReqB:S:C:T=0:0:*:*
   ReqTRES=cpu=128,mem=1534000M,node=2,billing=128
   AllocTRES=cpu=384,mem=1534000M,node=2,billing=384
   Socks/Node=* NtasksPerN:B:S:C=64:0:*:* CoreSpec=*
   MinCPUsNode=64 MinMemoryNode=767000M MinTmpDiskNode=0
   Features=(null) DelayBoot=00:00:00
   OverSubscribe=NO Contiguous=0 Licenses=(null) Network=(null)
   Command=/scratch/anthonyy/reentry/orion/config/run.sh
   WorkDir=/scratch/anthonyy/reentry/orion/cases/m3_medium
   Comment=/opt/slurm/bin/sbatch --export=NONE --get-user-env=L --job-name m3_medium --nodes 2 --ntasks-per-node 64 --cpus-per-task 1 --mem 0 --time 18:00:00 --account rrg-jphickey --output orion_%j.out --error orion_%j.err --chdir /scratch/anthonyy/reentry/orion/cases/m3_medium /scratch/anthonyy/reentry/orion/config/run.sh /scratch/anthonyy/reentry/orion/config/generated/m3_medium.cfg 
   StdErr=/scratch/anthonyy/reentry/orion/cases/m3_medium/orion_1178737.err
   StdIn=/dev/null
   StdOut=/scratch/anthonyy/reentry/orion/cases/m3_medium/orion_1178737.out
   TresPerTask=cpu=1
   

sacct -j 1178737
JobID           JobName    Account    Elapsed  MaxVMSize     MaxRSS  SystemCPU    UserCPU ExitCode 
------------ ---------- ---------- ---------- ---------- ---------- ---------- ---------- -------- 
1178737       m3_medium rrg-jphic+   05:48:05                         00:00:00   00:00:00      0:0 
1178737.bat+      batch rrg-jphic+   05:48:05                         00:00:00   00:00:00      0:0 
1178737.ext+     extern rrg-jphic+   05:48:05                         00:00:00   00:00:00      0:0 
1178737.0       SU2_CFD rrg-jphic+   05:47:59                         00:00:00   00:00:00      0:0 

