Nodes:  tri[0837-0838]
Tasks:  128
NPN:    64
Config: /scratch/anthonyy/reentry/orion/config/generated/m1.5_aoa15.cfg

-------------------------------------------------------------------------
|    ___ _   _ ___                                                      |
|   / __| | | |_  )   Release 7.5.1 "Blackbird"                         |
|   \__ \ |_| |/ /                                                      |
|   |___/\___//___|   Suite (Computational Fluid Dynamics Code)         |
|                                                                       |
-------------------------------------------------------------------------
| SU2 Project Website: https://su2code.github.io                        |
|                                                                       |
| The SU2 Project is maintained by the SU2 Foundation                   |
| (http://su2foundation.org)                                            |
-------------------------------------------------------------------------
| Copyright 2012-2023, SU2 Contributors                                 |
|                                                                       |
| SU2 is free software; you can redistribute it and/or                  |
| modify it under the terms of the GNU Lesser General Public            |
| License as published by the Free Software Foundation; either          |
| version 2.1 of the License, or (at your option) any later version.    |
|                                                                       |
| SU2 is distributed in the hope that it will be useful,                |
| but WITHOUT ANY WARRANTY; without even the implied warranty of        |
| MERCHANTABILITY or FITNESS FOR A PARTICULAR PURPOSE. See the GNU      |
| Lesser General Public License for more details.                       |
|                                                                       |
| You should have received a copy of the GNU Lesser General Public      |
| License along with SU2. If not, see <http://www.gnu.org/licenses/>.   |
-------------------------------------------------------------------------

Parsing config file for zone 0

----------------- Physical Case Definition ( Zone 0 ) -------------------
Compressible RANS equations.
Turbulence model: Spalart-Allmaras-noft2
Hybrid RANS/LES: No Hybrid RANS/LES
Mach number: 1.5.
Angle of attack (AoA): 15 deg, and angle of sideslip (AoS): 0 deg.
Reynolds number: 1.71557e+08. Reference length 5.
No restart solution, use the values at infinity (freestream).
Non-Dimensional simulation (V=1.0, Rho=1.0, T=1.0 at the farfield).
The reference area will be computed using y(2D) or z(3D) projection.
The semi-span will be computed using the max y(3D) value.
The reference length is 0.64607 m.
Reference origin for moment evaluation is (0.25, 0, 0).
Surface(s) where the force coefficients are evaluated: ORION_SURFACE.

Input mesh file name: ../../mesh/fine.su2

--------------- Space Numerical Integration ( Zone 0 ) ------------------
Jameson-Schmidt-Turkel scheme (2nd order in space) for the flow inviscid terms.
JST viscous coefficients (2nd & 4th): 0.5, 0.02.
The method includes a grid stretching correction (p = 0.3).
Scalar upwind solver for the turbulence model.
First order integration in space.
Average of gradients with correction (viscous flow terms).
Average of gradients with correction (viscous turbulence terms).
Gradient for upwind reconstruction: Green-Gauss.
Gradient for viscous and source terms: Green-Gauss.

--------------- Time Numerical Integration  ( Zone 0 ) ------------------
Local time stepping (steady state simulation).
Euler implicit method for the flow equations.
FGMRES is used for solving the linear system.
Using a ILU(0) preconditioning.
Convergence criteria of the linear solver: 1e-06.
Max number of linear iterations: 100.
CFL adaptation. Factor down: 0.5, factor up: 1.2,
                lower limit: 0.1, upper limit: 3,
                acceptable linear residual: 0.001.
Courant-Friedrichs-Lewy number:        1
Euler implicit time integration for the turbulence model.

------------------ Convergence Criteria  ( Zone 0 ) ---------------------
Maximum number of solver subiterations: 999999.
Begin convergence monitoring at iteration 5.
Residual minimum value: 1e-8.
Cauchy series min. value: 1e-10.
Number of Cauchy elements: 100.
Begin windowed time average at iteration 0.

-------------------- Output Information ( Zone 0 ) ----------------------
File writing frequency: 
+------------------------------------+
|                     File| Frequency|
+------------------------------------+
|                  RESTART|       150|
|                 PARAVIEW|       150|
|         SURFACE_PARAVIEW|       150|
+------------------------------------+
Writing the convergence history file every 1 inner iterations.
Writing the screen convergence history every 1 inner iterations.
The tabular file format is CSV (.csv).
Convergence history file name: history.
Forces breakdown file name: forces_breakdown.dat.
Surface file name: surface_flow.
Volume file name: flow.
Restart file name: restart_flow.

------------- Config File Boundary Information ( Zone 0 ) ---------------
+-----------------------------------------------------------------------+
|                        Marker Type|                        Marker Name|
+-----------------------------------------------------------------------+
|                          Far-field|                           FARFIELD|
+-----------------------------------------------------------------------+
|                     Heat flux wall|                      ORION_SURFACE|
+-----------------------------------------------------------------------+

-------------------- Output Preprocessing ( Zone 0 ) --------------------

WARNING: SURFACE_PRESSURE_DROP can only be computed for at least 2 surfaces (outlet, inlet, ...)

Screen output fields: INNER_ITER, WALL_TIME, RMS_DENSITY, RMS_MOMENTUM-X, RMS_MOMENTUM-Y, RMS_MOMENTUM-Z, RMS_ENERGY, RMS_NU_TILDE, DRAG
History output group(s): ITER, RMS_RES
Convergence field(s): RMS_DENSITY
Warning: No (valid) fields chosen for time convergence monitoring. Time convergence monitoring inactive.
Volume output fields: MACH, PRESSURE, TEMPERATURE, DENSITY, HEAT_FLUX, Y_PLUS, COORDINATES, SOLUTION

------------------- Geometry Preprocessing ( Zone 0 ) -------------------
Three dimensional problem.
62211324 grid points before partitioning.
190879888 volume elements before partitioning.
2 surface markers.
4104 boundary elements in index 0 (Marker = FARFIELD).
1824836 boundary elements in index 1 (Marker = ORION_SURFACE).
Executing the partitioning functions.
Building the graph adjacency structure.
Calling ParMETIS... graph partitioning complete (4959327 edge cuts).
Distributing ParMETIS coloring.
Rebalancing vertices.
Rebalancing volume element connectivity.
Rebalancing markers and surface elements.
66952290 vertices including ghost points. 
197997438 interior elements including halo cells. 
103171259 tetrahedra.
94500655 prisms.
325524 pyramids.
Establishing MPI communication patterns.
Setting point connectivity.
Renumbering points (Reverse Cuthill McKee Ordering).
Recomputing point connectivity.
Setting element connectivity.
Checking the numerical grid orientation.
All volume elements are correctly orientend.
All surface elements are correctly orientend.
Identifying edges and vertices.
Setting the control volume structure.
Volume of the computational grid: 535693.
Searching for the closest normal neighbors to the surfaces.
Storing a mapping from global to local point index.
Compute the surface curvature.
Max K: 132.896. Mean K: 3.9104. Standard deviation K: 7.49569.
Checking for periodicity.
Computing mesh quality statistics for the dual control volumes.
+--------------------------------------------------------------+
|           Mesh Quality Metric|        Minimum|        Maximum|
+--------------------------------------------------------------+
|    Orthogonality Angle (deg.)|        53.0661|             90|
|     CV Face Area Aspect Ratio|        1.01143|        75298.5|
|           CV Sub-Volume Ratio|        1.00029|        45.0258|
+--------------------------------------------------------------+
Finding max control volume width.
Communicating number of neighbors.
Reference area = 11.531 m^2.
Semi-span length = 2.49999 m.
Wetted area = 57.9072 m^2.
Area projection in the x-plane = 19.6343 m^2, y-plane = 11.531 m^2, z-plane = 11.531 m^2.
Max. coordinate in the x-direction = 2.575 m, y-direction = 2.49999 m, z-direction = 2.49999 m.
Min. coordinate in the x-direction = -0.71 m, y-direction = -2.49999 m, z-direction = -2.5 m.
Computing wall distances.

-------------------- Solver Preprocessing ( Zone 0 ) --------------------
Viscous flow: Computing pressure using the ideal gas law
based on the free-stream temperature and a density computed
from the Reynolds number.
Force coefficients computed using free-stream values.

-- Models:
+------------------------------------------------------------------------------+
|          Viscosity Model|        Conductivity Model|              Fluid Model|
+------------------------------------------------------------------------------+
|               SUTHERLAND|          CONSTANT_PRANDTL|             STANDARD_AIR|
+------------------------------------------------------------------------------+
-- Fluid properties:
+------------------------------------------------------------------------------+
|                  Name|    Dim. value|    Ref. value|      Unit|Non-dim. value|
+------------------------------------------------------------------------------+
|        Ref. Viscosity|     1.716e-05|       613.934|   N.s/m^2|   2.79509e-08|
|      Sutherland Temp.|        273.15|        288.15|         K|      0.947944|
|     Sutherland Const.|         110.4|        288.15|         K|      0.383134|
+------------------------------------------------------------------------------+
|        Prandtl (Lam.)|             -|             -|         -|          0.72|
|       Prandtl (Turb.)|             -|             -|         -|           0.9|
+------------------------------------------------------------------------------+
|          Gas Constant|       287.058|       904.233|  N.m/kg.K|       0.31746|
|      Spec. Heat Ratio|             -|             -|         -|           1.4|
+------------------------------------------------------------------------------+
-- Initial and free-stream conditions:
+------------------------------------------------------------------------------+
|                  Name|    Dim. value|    Ref. value|      Unit|Non-dim. value|
+------------------------------------------------------------------------------+
|       Static Pressure|       99485.6|        313380|        Pa|       0.31746|
|               Density|       1.20274|       1.20274|    kg/m^3|             1|
|           Temperature|        288.15|        288.15|         K|             1|
|          Total Energy|        337067|        260555|   m^2/s^2|       1.29365|
|            Velocity-X|       493.053|       510.446|       m/s|      0.965926|
|            Velocity-Y|             0|       510.446|       m/s|             0|
|            Velocity-Z|       132.113|       510.446|       m/s|      0.258819|
|    Velocity Magnitude|       510.446|       510.446|       m/s|             1|
+------------------------------------------------------------------------------+
|             Viscosity|    1.7893e-05|       613.934|   N.s/m^2|   2.91448e-08|
|          Conductivity|             -|        555139|   W/m^2.K|             -|
|     Turb. Kin. Energy|        977.08|        260555|   m^2/s^2|       0.00375|
|     Spec. Dissipation|   6.56779e+06|       510.446|       1/s|       12866.8|
+------------------------------------------------------------------------------+
|           Mach Number|             -|             -|         -|           1.5|
|       Reynolds Number|             -|             -|         -|   1.71557e+08|
+------------------------------------------------------------------------------+
Initialize Jacobian structure (Navier-Stokes). MG level: 0.
Initialize Jacobian structure (SA model).

------------------- Numerics Preprocessing ( Zone 0 ) -------------------

----------------- Integration Preprocessing ( Zone 0 ) ------------------

------------------- Iteration Preprocessing ( Zone 0 ) ------------------
Euler/Navier-Stokes/RANS fluid iteration.

------------------------------ Begin Solver -----------------------------

Simulation Run using the Single-zone Driver
WARNING: SU2 was not compiled for an AVX-capable architecture. Performance could be better,
         see https://su2code.github.io/docs_v7/Build-SU2-Linux-MacOS/#compiler-optimizations
+--------------------------------------------------------------------------------------------------------------------+
|  Inner_Iter|   Time(sec)|    rms[Rho]|   rms[RhoU]|   rms[RhoV]|   rms[RhoW]|   rms[RhoE]|     rms[nu]|          CD|
+--------------------------------------------------------------------------------------------------------------------+
|           0|  6.2877e+00|   -5.257098|  -15.882467|  -16.484004|  -16.331981|   -5.049972|  -12.296224|    1.161308|
|           1|  6.2701e+00|   -5.408699|   -5.466008|   -6.506845|   -5.968483|   -5.204420|  -12.294608|    1.748057|
|           2|  6.2944e+00|   -5.413732|   -5.517981|   -6.476778|   -5.983493|   -5.201250|  -12.572384|    2.368574|
|           3|  6.4101e+00|   -5.418268|   -5.583245|   -6.386337|   -5.995463|   -5.196507|  -12.702567|    3.040456|
|           4|  6.4337e+00|   -5.426226|   -5.661109|   -6.290226|   -6.003951|   -5.195419|  -12.807941|    3.764063|
|           5|  6.5289e+00|   -5.443872|   -5.734803|   -6.206920|   -6.007795|   -5.205951|  -12.869771|    4.491143|
|           6|  6.6475e+00|   -5.478573|   -5.758364|   -6.138252|   -6.003384|   -5.238720|  -12.893580|    5.188184|
|           7|  6.8005e+00|   -5.530868|   -5.709849|   -6.082489|   -5.993310|   -5.296811|  -12.900297|    5.718145|
|           8|  6.9275e+00|   -5.562294|   -5.644028|   -6.044513|   -5.971701|   -5.335733|  -12.890474|    5.890537|
|           9|  7.0191e+00|   -5.526841|   -5.612853|   -6.017138|   -5.934134|   -5.285518|  -12.868642|    5.570009|
|          10|  7.0890e+00|   -5.462239|   -5.635299|   -5.993156|   -5.894287|   -5.198478|  -12.860363|    4.874256|
|          11|  7.1531e+00|   -5.428874|   -5.693910|   -5.970037|   -5.874791|   -5.154244|  -12.845467|    4.156485|
|          12|  7.2174e+00|   -5.439039|   -5.721210|   -5.957897|   -5.877824|   -5.164230|  -12.804051|    3.722777|
|          13|  7.2710e+00|   -5.473468|   -5.693306|   -5.958559|   -5.893099|   -5.206375|  -12.774335|    3.615730|
|          14|  7.3058e+00|   -5.501156|   -5.664976|   -5.968549|   -5.906564|   -5.243989|  -12.764240|    3.751898|
|          15|  7.3347e+00|   -5.507236|   -5.678303|   -5.985274|   -5.914162|   -5.251597|  -12.756575|    4.001647|
|          16|  7.3641e+00|   -5.502709|   -5.722067|   -5.999365|   -5.920449|   -5.243211|  -12.740681|    4.252201|
|          17|  7.3944e+00|   -5.505877|   -5.748679|   -6.002867|   -5.925776|   -5.246797|  -12.719936|    4.439912|
|          18|  7.4312e+00|   -5.513188|   -5.732824|   -5.998794|   -5.928367|   -5.258171|  -12.702781|    4.551217|
|          19|  7.4553e+00|   -5.517980|   -5.716062|   -5.997845|   -5.926767|   -5.265285|  -12.694039|    4.608096|
|          20|  7.4757e+00|   -5.514026|   -5.724544|   -6.001858|   -5.924524|   -5.259110|  -12.686240|    4.643369|
|          21|  7.4901e+00|   -5.511462|   -5.748396|   -6.003897|   -5.925027|   -5.255134|  -12.676284|    4.678904|
|          22|  7.5040e+00|   -5.512581|   -5.752713|   -5.999979|   -5.927381|   -5.256885|  -12.663571|    4.718920|
|          23|  7.5200e+00|   -5.513454|   -5.732035|   -5.994439|   -5.925330|   -5.259674|  -12.650727|    4.756609|
|          24|  7.5352e+00|   -5.512979|   -5.718320|   -5.992750|   -5.921147|   -5.259017|  -12.643774|    4.784109|
|          25|  7.5472e+00|   -5.507016|   -5.723698|   -5.993493|   -5.917510|   -5.250274|  -12.638708|    4.798831|
|          26|  7.5581e+00|   -5.504451|   -5.739803|   -5.993001|   -5.918716|   -5.246262|  -12.630906|    4.804237|
|          27|  7.5662e+00|   -5.504427|   -5.740211|   -5.988822|   -5.919247|   -5.246452|  -12.623716|    4.806602|
|          28|  7.5779e+00|   -5.504761|   -5.722250|   -5.984725|   -5.916372|   -5.248435|  -12.612383|    4.811003|
|          29|  7.5900e+00|   -5.503794|   -5.710273|   -5.983075|   -5.911749|   -5.247296|  -12.607292|    4.819206|
|          30|  7.6009e+00|   -5.498607|   -5.713888|   -5.983175|   -5.909602|   -5.239949|  -12.603984|    4.830042|
|          31|  7.6082e+00|   -5.496265|   -5.726266|   -5.982282|   -5.910751|   -5.236336|  -12.598715|    4.841135|
|          32|  7.6145e+00|   -5.496361|   -5.725292|   -5.979365|   -5.911176|   -5.236599|  -12.595686|    4.850574|
|          33|  7.6215e+00|   -5.496730|   -5.709196|   -5.976413|   -5.907904|   -5.238508|  -12.586341|    4.857743|
|          34|  7.6301e+00|   -5.495593|   -5.697980|   -5.975143|   -5.904074|   -5.237305|  -12.581815|    4.863219|
|          35|  7.6356e+00|   -5.490946|   -5.699096|   -5.975145|   -5.901964|   -5.230986|  -12.580003|    4.868109|
|          36|  7.6425e+00|   -5.488526|   -5.706126|   -5.973922|   -5.902453|   -5.227460|  -12.574982|    4.873339|
|          37|  7.6470e+00|   -5.487926|   -5.700759|   -5.971414|   -5.901417|   -5.226772|  -12.574636|    4.879245|
|          38|  7.6501e+00|   -5.487611|   -5.682641|   -5.968690|   -5.896935|   -5.227625|  -12.565335|    4.885587|
|          39|  7.6546e+00|   -5.484851|   -5.666161|   -5.966573|   -5.890941|   -5.224418|  -12.559677|    4.891844|
|          40|  7.6598e+00|   -5.478969|   -5.656536|   -5.965141|   -5.885594|   -5.216775|  -12.555973|    4.897562|
|          41|  7.6630e+00|   -5.474164|   -5.647958|   -5.961866|   -5.880922|   -5.210402|  -12.547786|    4.902571|
|          42|  7.6658e+00|   -5.469786|   -5.627615|   -5.957035|   -5.873168|   -5.205035|  -12.544404|    4.906986|
|          43|  7.6773e+00|   -5.464961|   -5.597649|   -5.950978|   -5.860964|   -5.200257|  -12.531637|    4.911066|
|          44|  7.6905e+00|   -5.456703|   -5.567294|   -5.944141|   -5.846001|   -5.190702|  -12.519640|    4.915034|
|          45|  7.7028e+00|   -5.445017|   -5.539880|   -5.936365|   -5.830158|   -5.176920|  -12.509664|    4.918976|
|          46|  7.7138e+00|   -5.433562|   -5.512937|   -5.926242|   -5.813540|   -5.163714|  -12.494267|    4.922835|
|          47|  7.7253e+00|   -5.421410|   -5.480914|   -5.913774|   -5.794026|   -5.150383|  -12.483712|    4.926498|
|          48|  7.7385e+00|   -5.408743|   -5.446418|   -5.899657|   -5.771674|   -5.137733|  -12.466172|    4.929876|
|          49|  7.7502e+00|   -5.393539|   -5.413828|   -5.884465|   -5.748621|   -5.122069|  -12.448520|    4.932957|
|          50|  7.7614e+00|   -5.376244|   -5.384602|   -5.868295|   -5.725968|   -5.104267|  -12.434117|    4.935790|
|          51|  7.7723e+00|   -5.360120|   -5.358059|   -5.851143|   -5.704570|   -5.088265|  -12.416018|    4.938449|
|          52|  7.7832e+00|   -5.344125|   -5.331497|   -5.833002|   -5.683045|   -5.072924|  -12.403208|    4.940988|
|          53|  7.7915e+00|   -5.329105|   -5.305974|   -5.814955|   -5.662127|   -5.059605|  -12.386870|    4.943424|
|          54|  7.7996e+00|   -5.313588|   -5.283054|   -5.797351|   -5.642478|   -5.045565|  -12.371200|    4.945742|
|          55|  7.8080e+00|   -5.297966|   -5.263181|   -5.780366|   -5.624826|   -5.031400|  -12.359190|    4.947920|
|          56|  7.8186e+00|   -5.284352|   -5.246110|   -5.764164|   -5.609246|   -5.019617|  -12.345369|    4.949945|
|          57|  7.8272e+00|   -5.271756|   -5.230145|   -5.748577|   -5.594998|   -5.008994|  -12.336255|    4.951820|
|          58|  7.8356e+00|   -5.260817|   -5.215617|   -5.734234|   -5.582051|   -5.000641|  -12.325661|    4.953565|
|          59|  7.8429e+00|   -5.250360|   -5.203151|   -5.721097|   -5.570757|   -4.992419|  -12.315665|    4.955199|
|          60|  7.8491e+00|   -5.240402|   -5.192850|   -5.709121|   -5.561120|   -4.984460|  -12.309071|    4.956737|
|          61|  7.8552e+00|   -5.232394|   -5.184681|   -5.698334|   -5.553324|   -4.978598|  -12.301029|    4.958184|
|          62|  7.8627e+00|   -5.225308|   -5.177389|   -5.688403|   -5.546487|   -4.973502|  -12.296986|    4.959539|
|          63|  7.8701e+00|   -5.219779|   -5.171123|   -5.679715|   -5.540708|   -4.970354|  -12.291798|    4.960799|
|          64|  7.8779e+00|   -5.214664|   -5.166179|   -5.671962|   -5.535884|   -4.967169|  -12.287058|    4.961963|
|          65|  7.8844e+00|   -5.209997|   -5.162605|   -5.665185|   -5.532180|   -4.964130|  -12.284833|    4.963035|
|          66|  7.8898e+00|   -5.206727|   -5.160462|   -5.659217|   -5.529512|   -4.962537|  -12.281326|    4.964021|
|          67|  7.8973e+00|   -5.204076|   -5.158787|   -5.653868|   -5.527378|   -4.961311|  -12.280757|    4.964928|
|          68|  7.9033e+00|   -5.202518|   -5.157640|   -5.649316|   -5.525665|   -4.961485|  -12.279331|    4.965761|
|          69|  7.9085e+00|   -5.201166|   -5.157258|   -5.645305|   -5.524455|   -4.961447|  -12.277686|    4.966524|
|          70|  7.9121e+00|   -5.199909|   -5.157640|   -5.641861|   -5.523728|   -4.961189|  -12.278165|    4.967217|
|          71|  7.9165e+00|   -5.199616|   -5.158953|   -5.638849|   -5.523605|   -4.961973|  -12.277093|    4.967843|
|          72|  7.9209e+00|   -5.199578|   -5.160406|   -5.636187|   -5.523587|   -4.962737|  -12.278248|    4.968402|
|          73|  7.9264e+00|   -5.200221|   -5.162007|   -5.633953|   -5.523695|   -4.964497|  -12.278746|    4.968896|
|          74|  7.9307e+00|   -5.200895|   -5.164029|   -5.632032|   -5.523974|   -4.965972|  -12.278306|    4.969329|
|          75|  7.9352e+00|   -5.201313|   -5.166389|   -5.630397|   -5.524455|   -4.966890|  -12.279977|    4.969705|
|          76|  7.9341e+00|   -5.202421|   -5.169390|   -5.629030|   -5.525274|   -4.968689|  -12.279644|    4.970026|
|          77|  7.9341e+00|   -5.203436|   -5.172304|   -5.627838|   -5.526058|   -4.970102|  -12.281133|    4.970296|
|          78|  7.9338e+00|   -5.204841|   -5.175121|   -5.626922|   -5.526818|   -4.972266|  -12.282212|    4.970515|
|          79|  7.9329e+00|   -5.206191|   -5.178169|   -5.626218|   -5.527642|   -4.974161|  -12.281683|    4.970686|
|          80|  7.9324e+00|   -5.207009|   -5.181236|   -5.625628|   -5.528516|   -4.975197|  -12.283688|    4.970810|
|          81|  7.9306e+00|   -5.208501|   -5.184832|   -5.625249|   -5.529619|   -4.977206|  -12.283150|    4.970890|
|          82|  7.9298e+00|   -5.209643|   -5.188187|   -5.624825|   -5.530591|   -4.978446|  -12.284475|    4.970928|
|          83|  7.9292e+00|   -5.211154|   -5.191325|   -5.624518|   -5.531419|   -4.980436|  -12.285591|    4.970925|
|          84|  7.9285e+00|   -5.212643|   -5.194578|   -5.624204|   -5.532224|   -4.982214|  -12.284679|    4.970884|
|          85|  7.9285e+00|   -5.213455|   -5.197618|   -5.623752|   -5.532902|   -4.982919|  -12.286687|    4.970807|
|          86|  7.9270e+00|   -5.214993|   -5.201173|   -5.623418|   -5.533746|   -4.984748|  -12.285676|    4.970694|
|          87|  7.9268e+00|   -5.215957|   -5.204404|   -5.622859|   -5.534397|   -4.985487|  -12.286549|    4.970547|
|          88|  7.9268e+00|   -5.217282|   -5.207365|   -5.622384|   -5.534869|   -4.987035|  -12.287381|    4.970365|
|          89|  7.9263e+00|   -5.218571|   -5.210373|   -5.621829|   -5.535312|   -4.988457|  -12.285880|    4.970150|
|          90|  7.9263e+00|   -5.219060|   -5.213008|   -5.621089|   -5.535571|   -4.988661|  -12.287470|    4.969902|
|          91|  7.9208e+00|   -5.220228|   -5.216142|   -5.620473|   -5.535990|   -4.990022|  -12.286039|    4.969620|
|          92|  7.9153e+00|   -5.220711|   -5.218953|   -5.619574|   -5.536231|   -4.990133|  -12.286216|    4.969306|
|          93|  7.9106e+00|   -5.221504|   -5.221431|   -5.618746|   -5.536284|   -4.990984|  -12.286975|    4.968957|
|          94|  7.9053e+00|   -5.222367|   -5.223963|   -5.617820|   -5.536327|   -4.991968|  -12.285092|    4.968574|
|          95|  7.9010e+00|   -5.222352|   -5.226016|   -5.616688|   -5.536155|   -4.991592|  -12.286309|    4.968156|
|          96|  7.8963e+00|   -5.222916|   -5.228497|   -5.615700|   -5.536106|   -4.992328|  -12.285060|    4.967699|
|          97|  7.8917e+00|   -5.222800|   -5.230801|   -5.614454|   -5.535946|   -4.991866|  -12.284437|    4.967205|
|          98|  7.8871e+00|   -5.222797|   -5.232662|   -5.613266|   -5.535570|   -4.991787|  -12.285530|    4.966669|
|          99|  7.8825e+00|   -5.223099|   -5.234673|   -5.612071|   -5.535215|   -4.992360|  -12.283510|    4.966092|
|         100|  7.8782e+00|   -5.222432|   -5.236183|   -5.610648|   -5.534669|   -4.991373|  -12.284062|    4.965470|
|         101|  7.8740e+00|   -5.222217|   -5.237914|   -5.609393|   -5.534170|   -4.991348|  -12.283535|    4.964802|
|         102|  7.8699e+00|   -5.221544|   -5.239821|   -5.607946|   -5.533685|   -4.990584|  -12.281711|    4.964085|
|         103|  7.8368e+00|   -5.220573|   -5.241184|   -5.606456|   -5.532976|   -4.989402|  -12.283751|    4.964070|
|         104|  7.8043e+00|   -5.219929|   -5.241147|   -5.606135|   -5.532683|   -4.988699|  -12.282967|    4.964051|
|         105|  7.7726e+00|   -5.219179|   -5.241095|   -5.605753|   -5.532336|   -4.987889|  -12.282059|    4.964028|
|         106|  7.7454e+00|   -5.218312|   -5.241023|   -5.605297|   -5.531928|   -4.986964|  -12.281013|    4.964000|
|         107|  7.7190e+00|   -5.217322|   -5.240920|   -5.604755|   -5.531450|   -4.985921|  -12.279819|    4.963965|
|         108|  7.6926e+00|   -5.216205|   -5.240771|   -5.604113|   -5.530892|   -4.984765|  -12.278468|    4.963923|
|         109|  7.6670e+00|   -5.214968|   -5.240550|   -5.603353|   -5.530248|   -4.983510|  -12.276946|    4.963871|
|         110|  7.6421e+00|   -5.213629|   -5.240220|   -5.602456|   -5.529510|   -4.982181|  -12.275219|    4.963806|
|         111|  7.6214e+00|   -5.212224|   -5.239727|   -5.601406|   -5.528675|   -4.980820|  -12.273237|    4.963725|
|         112|  7.6008e+00|   -5.210813|   -5.239002|   -5.600188|   -5.527746|   -4.979490|  -12.270997|    4.963623|
|         113|  7.5803e+00|   -5.209480|   -5.237978|   -5.598798|   -5.526734|   -4.978277|  -12.268629|    4.963496|
|         114|  7.5599e+00|   -5.208318|   -5.236629|   -5.597255|   -5.525670|   -4.977279|  -12.266421|    4.963334|
|         115|  7.5438e+00|   -5.207377|   -5.235049|   -5.595601|   -5.524600|   -4.976556|  -12.264824|    4.963129|
|         116|  7.5282e+00|   -5.206549|   -5.233504|   -5.593883|   -5.523576|   -4.975978|  -12.263852|    4.962867|
|         117|  7.5168e+00|   -5.205342|   -5.232316|   -5.592073|   -5.522574|   -4.974780|  -12.262238|    4.962531|
|         118|  7.5057e+00|   -5.202767|   -5.231537|   -5.590012|   -5.521368|   -4.971200|  -12.258057|    4.962100|
|         119|  7.4972e+00|   -5.198259|   -5.231103|   -5.587638|   -5.519649|   -4.964156|  -12.253698|    4.961547|
|         120|  7.4895e+00|   -5.193344|   -5.231916|   -5.585462|   -5.517679|   -4.956660|  -12.254478|    4.960839|
|         121|  7.4853e+00|   -5.190756|   -5.234730|   -5.584371|   -5.516290|   -4.953379|  -12.258296|    4.959930|
|         122|  7.4814e+00|   -5.190808|   -5.238414|   -5.584605|   -5.516072|   -4.953806|  -12.259001|    4.958840|
|         123|  7.4781e+00|   -5.191148|   -5.242045|   -5.585532|   -5.516835|   -4.953958|  -12.261009|    4.957694|
|         124|  7.4743e+00|   -5.193719|   -5.245127|   -5.586680|   -5.517776|   -4.957433|  -12.267236|    4.956486|
|         125|  7.4702e+00|   -5.199454|   -5.247024|   -5.587899|   -5.518819|   -4.966117|  -12.270614|    4.955208|
|         126|  7.4662e+00|   -5.203151|   -5.247476|   -5.588110|   -5.519579|   -4.972052|  -12.267999|    4.953858|
|         127|  7.4628e+00|   -5.202953|   -5.247893|   -5.587351|   -5.519916|   -4.972236|  -12.266416|    4.952433|
|         128|  7.4594e+00|   -5.201891|   -5.249521|   -5.586543|   -5.519844|   -4.971557|  -12.264302|    4.950935|
|         129|  7.4564e+00|   -5.200010|   -5.251953|   -5.585460|   -5.519296|   -4.969932|  -12.258747|    4.949371|
|         130|  7.4528e+00|   -5.196844|   -5.253706|   -5.583899|   -5.518310|   -4.966475|  -12.256940|    4.947753|
|         131|  7.4495e+00|   -5.195231|   -5.254150|   -5.582439|   -5.517176|   -4.965748|  -12.257115|    4.946102|
|         132|  7.4459e+00|   -5.194436|   -5.253889|   -5.581012|   -5.515984|   -4.966539|  -12.252567|    4.944451|
|         133|  7.4426e+00|   -5.191390|   -5.253369|   -5.579261|   -5.514451|   -4.963977|  -12.249363|    4.942842|
|         134|  7.4398e+00|   -5.187952|   -5.253540|   -5.577670|   -5.512598|   -4.961030|  -12.247288|    4.941329|
|         135|  7.4362e+00|   -5.184528|   -5.254266|   -5.576079|   -5.510251|   -4.958135|  -12.241060|    4.939969|
|         136|  7.4325e+00|   -5.179774|   -5.254671|   -5.574124|   -5.507181|   -4.953111|  -12.236029|    4.938813|
|         137|  7.4284e+00|   -5.175505|   -5.254582|   -5.572174|   -5.503523|   -4.949215|  -12.234202|    4.937897|
|         138|  7.4248e+00|   -5.172591|   -5.254003|   -5.570235|   -5.499302|   -4.947715|  -12.228678|    4.937226|
|         139|  7.4219e+00|   -5.168294|   -5.252581|   -5.567727|   -5.494200|   -4.944011|  -12.221180|    4.936759|
|         140|  7.4188e+00|   -5.162617|   -5.251481|   -5.564884|   -5.488277|   -4.938477|  -12.216170|    4.936402|
|         141|  7.4157e+00|   -5.156959|   -5.251251|   -5.561908|   -5.481546|   -4.933529|  -12.209602|    4.936002|
|         142|  7.4128e+00|   -5.150352|   -5.250633|   -5.558301|   -5.473674|   -4.927147|  -12.199513|    4.935355|
|         143|  7.4097e+00|   -5.142323|   -5.249151|   -5.553884|   -5.464572|   -4.918674|  -12.190911|    4.934219|
|         144|  7.4072e+00|   -5.134479|   -5.247678|   -5.549094|   -5.454469|   -4.911238|  -12.183484|    4.932343|
|         145|  7.4044e+00|   -5.126542|   -5.245741|   -5.543751|   -5.443226|   -4.904259|  -12.172947|    4.929494|
|         146|  7.4012e+00|   -5.117038|   -5.242400|   -5.537290|   -5.430691|   -4.894908|  -12.160158|    4.925492|
|         147|  7.3949e+00|   -5.106041|   -5.238581|   -5.529730|   -5.417081|   -4.883625|  -12.148069|    4.920240|
|         148|  7.3891e+00|   -5.094252|   -5.235276|   -5.521337|   -5.402568|   -4.872001|  -12.135399|    4.913739|
|         149|  7.3836e+00|   -5.081312|   -5.231618|   -5.511867|   -5.387061|   -4.859180|  -12.120149|    4.906099|
|         150|  7.3788e+00|   -5.066774|   -5.226475|   -5.500944|   -5.370587|   -4.844128|  -12.103796|    4.897524|
+-----------------------------------------------------------------------+
|        File Writing Summary       |              Filename             |
+-----------------------------------------------------------------------+
|SU2 binary restart                 |restart_flow.dat                   |
|Paraview                           |flow.vtu                           |
|Paraview surface                   |surface_flow.vtu                   |
+-----------------------------------------------------------------------+
+--------------------------------------------------------------------------------------------------------------------+
|  Inner_Iter|   Time(sec)|    rms[Rho]|   rms[RhoU]|   rms[RhoV]|   rms[RhoW]|   rms[RhoE]|     rms[nu]|          CD|
+--------------------------------------------------------------------------------------------------------------------+
|         151|  7.5135e+00|   -5.051128|   -5.220225|   -5.488631|   -5.353377|   -4.827937|  -12.087774|    4.888293|
|         152|  7.5092e+00|   -5.034640|   -5.213225|   -5.475108|   -5.335506|   -4.811233|  -12.070876|    4.878729|
|         153|  7.5041e+00|   -5.017017|   -5.204809|   -5.460385|   -5.316873|   -4.793244|  -12.052078|    4.869164|
|         154|  7.4981e+00|   -4.998138|   -5.194650|   -5.444432|   -5.297549|   -4.773589|  -12.032741|    4.859907|
|         155|  7.4922e+00|   -4.978332|   -5.183328|   -5.427313|   -5.277692|   -4.752926|  -12.013358|    4.851211|
|         156|  7.4861e+00|   -4.957884|   -5.171221|   -5.409126|   -5.257457|   -4.731707|  -11.993171|    4.843257|
|         157|  7.4803e+00|   -4.936804|   -5.157992|   -5.389894|   -5.236928|   -4.709801|  -11.972188|    4.836139|
|         158|  7.4746e+00|   -4.915093|   -5.143481|   -5.369694|   -5.216234|   -4.687161|  -11.951025|    4.829867|
|         159|  7.4692e+00|   -4.892901|   -5.127930|   -5.348717|   -5.195551|   -4.664001|  -11.929631|    4.824380|
|         160|  7.4639e+00|   -4.870380|   -5.111310|   -5.327127|   -5.175021|   -4.640472|  -11.907929|    4.819560|
|         161|  7.4587e+00|   -4.847701|   -5.093633|   -5.305105|   -5.154779|   -4.616800|  -11.886286|    4.815258|
|         162|  7.4532e+00|   -4.825010|   -5.075261|   -5.282807|   -5.134935|   -4.593207|  -11.864821|    4.811312|
|         163|  7.4348e+00|   -4.802394|   -5.056486|   -5.260295|   -5.115567|   -4.569757|  -11.873349|    4.811182|
|         164|  7.4166e+00|   -4.801132|   -5.055778|   -5.259257|   -5.114589|   -4.568546|  -11.871551|    4.811026|
|         165|  7.3987e+00|   -4.799635|   -5.054913|   -5.258012|   -5.113423|   -4.567112|  -11.869421|    4.810840|
|         166|  7.3831e+00|   -4.797864|   -5.053851|   -5.256520|   -5.112037|   -4.565417|  -11.866903|    4.810618|
|         167|  7.3678e+00|   -4.795773|   -5.052542|   -5.254734|   -5.110390|   -4.563419|  -11.863938|    4.810355|
|         168|  7.3528e+00|   -4.793314|   -5.050922|   -5.252596|   -5.108438|   -4.561073|  -11.860461|    4.810041|
|         169|  7.3379e+00|   -4.790433|   -5.048907|   -5.250038|   -5.106130|   -4.558329|  -11.856403|    4.809667|
|         170|  7.3235e+00|   -4.787074|   -5.046386|   -5.246980|   -5.103407|   -4.555134|  -11.851697|    4.809223|
|         171|  7.3092e+00|   -4.783179|   -5.043219|   -5.243331|   -5.100210|   -4.551436|  -11.846277|    4.808696|
|         172|  7.2975e+00|   -4.778694|   -5.039224|   -5.238987|   -5.096475|   -4.547181|  -11.840088|    4.808070|
|         173|  7.2858e+00|   -4.773560|   -5.034174|   -5.233823|   -5.092127|   -4.542308|  -11.833087|    4.807326|
|         174|  7.2745e+00|   -4.767723|   -5.027799|   -5.227703|   -5.087093|   -4.536746|  -11.825241|    4.806440|
|         175|  7.2632e+00|   -4.761113|   -5.019806|   -5.220473|   -5.081292|   -4.530392|  -11.816528|    4.805380|
|         176|  7.2543e+00|   -4.753633|   -5.009931|   -5.211980|   -5.074643|   -4.523076|  -11.806904|    4.804109|
|         177|  7.2457e+00|   -4.745109|   -4.998026|   -5.202063|   -5.067046|   -4.514508|  -11.796251|    4.802571|
|         178|  7.2373e+00|   -4.735243|   -4.984185|   -5.190576|   -5.058374|   -4.504207|  -11.784337|    4.800696|
|         179|  7.2308e+00|   -4.723570|   -4.968864|   -5.177397|   -5.048467|   -4.491476|  -11.770807|    4.798382|
|         180|  7.2248e+00|   -4.709462|   -4.952912|   -5.162397|   -5.037103|   -4.475502|  -11.755222|    4.795491|
|         181|  7.2209e+00|   -4.692319|   -4.937355|   -5.145458|   -5.024045|   -4.455680|  -11.737383|    4.791831|
|         182|  7.2174e+00|   -4.672042|   -4.922920|   -5.126489|   -5.009297|   -4.432262|  -11.718759|    4.787455|
|         183|  7.2137e+00|   -4.650268|   -4.909969|   -5.106384|   -4.993879|   -4.407814|  -11.701718|    4.782835|
|         184|  7.2100e+00|   -4.629978|   -4.897733|   -5.086949|   -4.979704|   -4.386193|  -11.685694|    4.777976|
|         185|  7.2064e+00|   -4.612102|   -4.883467|   -5.068220|   -4.967191|   -4.368183|  -11.670901|    4.772886|
|         186|  7.2031e+00|   -4.596456|   -4.866662|   -5.050334|   -4.956195|   -4.353199|  -11.656766|    4.767568|
|         187|  7.1996e+00|   -4.582118|   -4.848598|   -5.033190|   -4.946202|   -4.339747|  -11.642548|    4.762026|
|         188|  7.1959e+00|   -4.568072|   -4.830851|   -5.016626|   -4.936599|   -4.326305|  -11.628078|    4.756257|
|         189|  7.1920e+00|   -4.553794|   -4.814338|   -5.000560|   -4.927059|   -4.312145|  -11.613840|    4.750255|
|         190|  7.1885e+00|   -4.539298|   -4.799136|   -4.985017|   -4.917479|   -4.297352|  -11.600215|    4.744012|
|         191|  7.1852e+00|   -4.524969|   -4.784897|   -4.970085|   -4.907906|   -4.282521|  -11.587575|    4.737521|
|         192|  7.1818e+00|   -4.511267|   -4.771180|   -4.955846|   -4.898441|   -4.268280|  -11.576028|    4.730775|
|         193|  7.1787e+00|   -4.498556|   -4.757904|   -4.942374|   -4.889222|   -4.255089|  -11.565465|    4.723772|
|         194|  7.1754e+00|   -4.486974|   -4.745274|   -4.929754|   -4.880300|   -4.243095|  -11.555901|    4.716511|
|         195|  7.1720e+00|   -4.476532|   -4.733778|   -4.918034|   -4.871739|   -4.232314|  -11.547247|    4.708998|
|         196|  7.1687e+00|   -4.467129|   -4.723883|   -4.907142|   -4.863541|   -4.222657|  -11.539382|    4.701246|
|         197|  7.1550e+00|   -4.458664|   -4.715564|   -4.896964|   -4.855701|   -4.213974|  -11.546569|    4.700998|
|         198|  7.1414e+00|   -4.457814|   -4.715412|   -4.896344|   -4.855122|   -4.213240|  -11.545202|    4.700698|
|         199|  7.1299e+00|   -4.456819|   -4.715211|   -4.895604|   -4.854434|   -4.212385|  -11.543600|    4.700338|
|         200|  7.1191e+00|   -4.455660|   -4.714945|   -4.894723|   -4.853621|   -4.211397|  -11.541733|    4.699905|
|         201|  7.1080e+00|   -4.454320|   -4.714586|   -4.893677|   -4.852663|   -4.210265|  -11.539571|    4.699382|
|         202|  7.0970e+00|   -4.452785|   -4.714096|   -4.892436|   -4.851537|   -4.208980|  -11.537090|    4.698753|
|         203|  7.0859e+00|   -4.451044|   -4.713421|   -4.890968|   -4.850220|   -4.207543|  -11.534272|    4.697993|
|         204|  7.0749e+00|   -4.449100|   -4.712485|   -4.889238|   -4.848688|   -4.205964|  -11.531115|    4.697076|
|         205|  7.0661e+00|   -4.446966|   -4.711183|   -4.887206|   -4.846917|   -4.204271|  -11.527636|    4.695967|
|         206|  7.0575e+00|   -4.444684|   -4.709372|   -4.884835|   -4.844888|   -4.202512|  -11.523893|    4.694624|
|         207|  7.0493e+00|   -4.442315|   -4.706864|   -4.882084|   -4.842581|   -4.200753|  -11.519963|    4.692995|
|         208|  7.0409e+00|   -4.439947|   -4.703437|   -4.878919|   -4.839976|   -4.199073|  -11.515965|    4.691018|
|         209|  7.0348e+00|   -4.437684|   -4.698862|   -4.875310|   -4.837066|   -4.197539|  -11.512055|    4.688615|
|         210|  7.0285e+00|   -4.435627|   -4.693004|   -4.871252|   -4.833844|   -4.196184|  -11.508393|    4.685692|
|         211|  7.0227e+00|   -4.433810|   -4.685936|   -4.866763|   -4.830291|   -4.194909|  -11.504993|    4.682135|
|         212|  7.0185e+00|   -4.432102|   -4.678123|   -4.861890|   -4.826384|   -4.193377|  -11.501746|    4.677807|
|         213|  7.0140e+00|   -4.430108|   -4.670569|   -4.856692|   -4.822049|   -4.190927|  -11.498322|    4.672550|
|         214|  7.0116e+00|   -4.427144|   -4.664803|   -4.851206|   -4.817198|   -4.186635|  -11.494328|    4.666182|
|         215|  7.0098e+00|   -4.422496|   -4.662466|   -4.845462|   -4.811746|   -4.179726|  -11.489689|    4.658506|
|         216|  7.0080e+00|   -4.416043|   -4.664591|   -4.839491|   -4.805691|   -4.170413|  -11.485662|    4.649894|
|         217|  7.0061e+00|   -4.409021|   -4.670476|   -4.833680|   -4.799461|   -4.160957|  -11.484018|    4.641403|
|         218|  7.0041e+00|   -4.403726|   -4.677115|   -4.828648|   -4.793906|   -4.154778|  -11.484262|    4.633097|
|         219|  7.0023e+00|   -4.401570|   -4.680994|   -4.824490|   -4.789431|   -4.153218|  -11.485988|    4.625038|
|         220|  7.0005e+00|   -4.402342|   -4.681212|   -4.821160|   -4.786026|   -4.155590|  -11.488054|    4.617285|
|         221|  6.9990e+00|   -4.404814|   -4.679521|   -4.818373|   -4.783433|   -4.160052|  -11.489344|    4.609891|
|         222|  6.9973e+00|   -4.407469|   -4.678302|   -4.815766|   -4.781301|   -4.164517|  -11.489280|    4.602892|
|         223|  6.9953e+00|   -4.409327|   -4.679039|   -4.813169|   -4.779320|   -4.167693|  -11.488031|    4.596309|
|         224|  6.9933e+00|   -4.410151|   -4.681953|   -4.810604|   -4.777371|   -4.169383|  -11.486368|    4.590138|
|         225|  6.9914e+00|   -4.410214|   -4.686227|   -4.808117|   -4.775379|   -4.170077|  -11.485000|    4.584347|
|         226|  6.9895e+00|   -4.409934|   -4.690463|   -4.805686|   -4.773298|   -4.170372|  -11.484381|    4.578883|
|         227|  6.9877e+00|   -4.409625|   -4.693466|   -4.803224|   -4.771093|   -4.170627|  -11.484348|    4.573666|
|         228|  6.9860e+00|   -4.409491|   -4.695093|   -4.800702|   -4.768896|   -4.171104|  -11.484773|    4.568600|
|         229|  6.9842e+00|   -4.409556|   -4.696020|   -4.798157|   -4.766789|   -4.171873|  -11.485349|    4.563576|
|         230|  6.9826e+00|   -4.409700|   -4.696850|   -4.795684|   -4.764734|   -4.172771|  -11.485710|    4.558483|
|         231|  6.9810e+00|   -4.409789|   -4.697811|   -4.793400|   -4.762658|   -4.173612|  -11.485774|    4.553210|
|         232|  6.9792e+00|   -4.409733|   -4.698860|   -4.791285|   -4.760471|   -4.174274|  -11.485595|    4.547655|
|         233|  6.9778e+00|   -4.409520|   -4.699813|   -4.789198|   -4.758177|   -4.174740|  -11.485363|    4.541730|
|         234|  6.9762e+00|   -4.409192|   -4.700481|   -4.786954|   -4.755862|   -4.175064|  -11.485154|    4.535358|
|         235|  6.9744e+00|   -4.408822|   -4.700638|   -4.784473|   -4.753546|   -4.175292|  -11.484828|    4.528479|
|         236|  6.9726e+00|   -4.408484|   -4.700095|   -4.781845|   -4.751222|   -4.175475|  -11.484447|    4.521046|
|         237|  6.9709e+00|   -4.408287|   -4.698915|   -4.779316|   -4.748901|   -4.175767|  -11.484187|    4.513023|
|         238|  6.9694e+00|   -4.408270|   -4.697433|   -4.777063|   -4.746540|   -4.176290|  -11.484019|    4.504384|
|         239|  6.9675e+00|   -4.408293|   -4.695825|   -4.775067|   -4.744112|   -4.176925|  -11.483769|    4.495112|
|         240|  6.9658e+00|   -4.408129|   -4.693799|   -4.773124|   -4.741538|   -4.177334|  -11.483288|    4.485196|
|         241|  6.9644e+00|   -4.407669|   -4.690922|   -4.771005|   -4.738769|   -4.177316|  -11.482627|    4.474627|
|         242|  6.9629e+00|   -4.407022|   -4.687027|   -4.768659|   -4.735864|   -4.176993|  -11.481893|    4.463406|
|         243|  6.9615e+00|   -4.406406|   -4.682310|   -4.766155|   -4.732944|   -4.176694|  -11.481268|    4.451535|
|         244|  6.9601e+00|   -4.405912|   -4.676875|   -4.763562|   -4.730075|   -4.176535|  -11.480658|    4.439024|
|         245|  6.9586e+00|   -4.405485|   -4.670815|   -4.760941|   -4.727233|   -4.176454|  -11.479923|    4.425889|
|         246|  6.9573e+00|   -4.405003|   -4.664260|   -4.758323|   -4.724340|   -4.176317|  -11.478999|    4.412150|
|         247|  6.9560e+00|   -4.404357|   -4.657274|   -4.755675|   -4.721276|   -4.176001|  -11.477866|    4.397836|
|         248|  6.9545e+00|   -4.403482|   -4.649737|   -4.752892|   -4.717969|   -4.175417|  -11.476506|    4.382981|
|         249|  6.9533e+00|   -4.402410|   -4.641498|   -4.749939|   -4.714398|   -4.174614|  -11.474901|    4.367623|
|         250|  6.9517e+00|   -4.401179|   -4.632472|   -4.746836|   -4.710603|   -4.173642|  -11.473098|    4.351805|
|         251|  6.9502e+00|   -4.399805|   -4.622741|   -4.743676|   -4.706637|   -4.172548|  -11.471100|    4.335571|
|         252|  6.9486e+00|   -4.398257|   -4.612439|   -4.740530|   -4.702548|   -4.171303|  -11.468804|    4.318964|
|         253|  6.9472e+00|   -4.396504|   -4.601717|   -4.737372|   -4.698365|   -4.169872|  -11.466118|    4.302026|
|         254|  6.9455e+00|   -4.394527|   -4.590687|   -4.734094|   -4.694086|   -4.168216|  -11.463065|    4.284795|
|         255|  6.9437e+00|   -4.392367|   -4.579464|   -4.730653|   -4.689725|   -4.166400|  -11.459792|    4.267302|
|         256|  6.9424e+00|   -4.390037|   -4.568119|   -4.727090|   -4.685282|   -4.164456|  -11.456287|    4.249572|
|         257|  6.9412e+00|   -4.387513|   -4.556674|   -4.723462|   -4.680740|   -4.162373|  -11.452462|    4.231623|
|         258|  6.9397e+00|   -4.384767|   -4.545098|   -4.719799|   -4.676092|   -4.160113|  -11.448295|    4.213468|
|         259|  6.9384e+00|   -4.381766|   -4.533382|   -4.716077|   -4.671326|   -4.157624|  -11.443747|    4.195108|
|         260|  6.9371e+00|   -4.378527|   -4.521598|   -4.712278|   -4.666432|   -4.154932|  -11.438871|    4.176543|
|         261|  6.9358e+00|   -4.375090|   -4.509830|   -4.708433|   -4.661409|   -4.152088|  -11.433741|    4.157765|
|         262|  6.9349e+00|   -4.371484|   -4.498173|   -4.704565|   -4.656270|   -4.149123|  -11.428400|    4.138763|
|         263|  6.9335e+00|   -4.367710|   -4.486723|   -4.700694|   -4.651041|   -4.146047|  -11.422865|    4.119523|
|         264|  6.9320e+00|   -4.363753|   -4.475542|   -4.696829|   -4.645761|   -4.142847|  -11.417103|    4.100032|
|         265|  6.9306e+00|   -4.359589|   -4.464643|   -4.692966|   -4.640471|   -4.139498|  -11.411118|    4.080274|
|         266|  6.9294e+00|   -4.355209|   -4.454022|   -4.689080|   -4.635206|   -4.135977|  -11.404895|    4.060236|
|         267|  6.9281e+00|   -4.350654|   -4.443688|   -4.685149|   -4.630005|   -4.132326|  -11.398508|    4.039907|
|         268|  6.9265e+00|   -4.345969|   -4.433649|   -4.681190|   -4.624881|   -4.128593|  -11.391985|    4.019277|
|         269|  6.9253e+00|   -4.341205|   -4.423930|   -4.677236|   -4.619826|   -4.124831|  -11.385419|    3.998342|
|         270|  6.9238e+00|   -4.336409|   -4.414576|   -4.673322|   -4.614837|   -4.121098|  -11.378852|    3.977100|
|         271|  6.9225e+00|   -4.331598|   -4.405651|   -4.669470|   -4.609918|   -4.117425|  -11.372293|    3.955553|
|         272|  6.9210e+00|   -4.326747|   -4.397203|   -4.665680|   -4.605061|   -4.113782|  -11.365758|    3.933708|
|         273|  6.9196e+00|   -4.321821|   -4.389244|   -4.661932|   -4.600268|   -4.110110|  -11.359246|    3.911574|
|         274|  6.9183e+00|   -4.316807|   -4.381757|   -4.658213|   -4.595551|   -4.106375|  -11.352803|    3.889166|
|         275|  6.9171e+00|   -4.311756|   -4.374717|   -4.654551|   -4.590936|   -4.102624|  -11.346470|    3.866502|
|         276|  6.9160e+00|   -4.306736|   -4.368114|   -4.650957|   -4.586442|   -4.098937|  -11.340268|    3.843603|
|         277|  6.9151e+00|   -4.301805|   -4.361963|   -4.647449|   -4.582094|   -4.095392|  -11.334219|    3.820495|
|         278|  6.9138e+00|   -4.296974|   -4.356295|   -4.644046|   -4.577902|   -4.092011|  -11.328337|    3.797205|
|         279|  6.9124e+00|   -4.292214|   -4.351139|   -4.640743|   -4.573868|   -4.088749|  -11.322625|    3.773763|
|         280|  6.9114e+00|   -4.287498|   -4.346517|   -4.637535|   -4.570002|   -4.085572|  -11.317080|    3.750201|
|         281|  6.9103e+00|   -4.282809|   -4.342415|   -4.634394|   -4.566311|   -4.082441|  -11.311726|    3.726552|
|         282|  6.9091e+00|   -4.278178|   -4.338806|   -4.631315|   -4.562799|   -4.079384|  -11.306598|    3.702850|
|         283|  6.9080e+00|   -4.273659|   -4.335664|   -4.628305|   -4.559470|   -4.076460|  -11.301710|    3.679128|
|         284|  6.9068e+00|   -4.269302|   -4.332982|   -4.625379|   -4.556334|   -4.073736|  -11.297103|    3.655420|
|         285|  6.9058e+00|   -4.265131|   -4.330766|   -4.622560|   -4.553406|   -4.071246|  -11.292769|    3.631756|
|         286|  6.9046e+00|   -4.261125|   -4.329033|   -4.619857|   -4.550694|   -4.068971|  -11.288673|    3.608168|
|         287|  6.9034e+00|   -4.257255|   -4.327808|   -4.617265|   -4.548195|   -4.066880|  -11.284786|    3.584682|
|         288|  6.9022e+00|   -4.253497|   -4.327057|   -4.614768|   -4.545896|   -4.064920|  -11.281124|    3.561322|
|         289|  6.9010e+00|   -4.249852|   -4.326748|   -4.612342|   -4.543790|   -4.063072|  -11.277722|    3.538110|
|         290|  6.9000e+00|   -4.246336|   -4.326851|   -4.609980|   -4.541886|   -4.061356|  -11.274604|    3.515064|
|         291|  6.8986e+00|   -4.242966|   -4.327339|   -4.607693|   -4.540186|   -4.059792|  -11.271784|    3.492198|
|         292|  6.8976e+00|   -4.239754|   -4.328196|   -4.605500|   -4.538697|   -4.058395|  -11.269245|    3.469522|
|         293|  6.8964e+00|   -4.236698|   -4.329415|   -4.603405|   -4.537411|   -4.057154|  -11.266976|    3.447044|
|         294|  6.8956e+00|   -4.233785|   -4.330986|   -4.601396|   -4.536313|   -4.056046|  -11.264976|    3.424767|
|         295|  6.8945e+00|   -4.231017|   -4.332863|   -4.599478|   -4.535390|   -4.055061|  -11.263215|    3.402694|
|         296|  6.8931e+00|   -4.228404|   -4.335017|   -4.597662|   -4.534644|   -4.054206|  -11.261682|    3.380822|
|         297|  6.8919e+00|   -4.225949|   -4.337405|   -4.595945|   -4.534073|   -4.053483|  -11.260352|    3.359148|
|         298|  6.8909e+00|   -4.223659|   -4.339993|   -4.594323|   -4.533675|   -4.052890|  -11.259227|    3.337669|
|         299|  6.8899e+00|   -4.221508|   -4.342731|   -4.592786|   -4.533423|   -4.052393|  -11.258292|    3.316377|
|         300|  6.8887e+00|   -4.219478|   -4.345585|   -4.591329|   -4.533295|   -4.051961|  -11.257523|    3.295267|
+-----------------------------------------------------------------------+
|        File Writing Summary       |              Filename             |
+-----------------------------------------------------------------------+
|SU2 binary restart                 |restart_flow.dat                   |
|Paraview                           |flow.vtu                           |
|Paraview surface                   |surface_flow.vtu                   |
+-----------------------------------------------------------------------+
+--------------------------------------------------------------------------------------------------------------------+
|  Inner_Iter|   Time(sec)|    rms[Rho]|   rms[RhoU]|   rms[RhoV]|   rms[RhoW]|   rms[RhoE]|     rms[nu]|          CD|
+--------------------------------------------------------------------------------------------------------------------+
|         301|  6.9554e+00|   -4.217547|   -4.348522|   -4.589964|   -4.533260|   -4.051555|  -11.256896|    3.274332|
|         302|  6.9545e+00|   -4.215705|   -4.351492|   -4.588687|   -4.533301|   -4.051150|  -11.256396|    3.253566|
|         303|  6.9537e+00|   -4.213965|   -4.354451|   -4.587504|   -4.533402|   -4.050756|  -11.256050|    3.232962|
|         304|  6.9527e+00|   -4.212336|   -4.357352|   -4.586403|   -4.533537|   -4.050384|  -11.255861|    3.212517|
|         305|  6.9514e+00|   -4.210839|   -4.360159|   -4.585381|   -4.533700|   -4.050061|  -11.255825|    3.192224|
|         306|  6.9501e+00|   -4.209474|   -4.362830|   -4.584431|   -4.533890|   -4.049787|  -11.255917|    3.172083|
|         307|  6.9489e+00|   -4.208232|   -4.365327|   -4.583552|   -4.534100|   -4.049538|  -11.256098|    3.152089|
|         308|  6.9479e+00|   -4.207091|   -4.367618|   -4.582742|   -4.534329|   -4.049287|  -11.256311|    3.132242|
|         309|  6.9466e+00|   -4.206040|   -4.369681|   -4.581995|   -4.534572|   -4.049014|  -11.256503|    3.112540|
|         310|  6.9452e+00|   -4.205071|   -4.371481|   -4.581313|   -4.534814|   -4.048700|  -11.256611|    3.092986|
|         311|  6.9442e+00|   -4.204200|   -4.372990|   -4.580710|   -4.535046|   -4.048367|  -11.256586|    3.073578|
|         312|  6.9431e+00|   -4.203445|   -4.374180|   -4.580202|   -4.535260|   -4.048041|  -11.256412|    3.054318|
|         313|  6.9421e+00|   -4.202823|   -4.375033|   -4.579800|   -4.535447|   -4.047738|  -11.256086|    3.035207|
|         314|  6.9410e+00|   -4.202330|   -4.375546|   -4.579516|   -4.535605|   -4.047465|  -11.255586|    3.016248|
|         315|  6.9398e+00|   -4.201958|   -4.375731|   -4.579342|   -4.535728|   -4.047213|  -11.255081|    2.997442|
|         316|  6.9386e+00|   -4.201697|   -4.375600|   -4.579267|   -4.535824|   -4.046965|  -11.254697|    2.978790|
|         317|  6.9376e+00|   -4.201530|   -4.375168|   -4.579283|   -4.535894|   -4.046706|  -11.254562|    2.960294|
|         318|  6.9367e+00|   -4.201455|   -4.374454|   -4.579388|   -4.535939|   -4.046433|  -11.254679|    2.941954|
|         319|  6.9356e+00|   -4.201469|   -4.373474|   -4.579579|   -4.535965|   -4.046154|  -11.254980|    2.923772|
|         320|  6.9343e+00|   -4.201588|   -4.372252|   -4.579854|   -4.535981|   -4.045892|  -11.255558|    2.905748|
|         321|  6.9334e+00|   -4.201832|   -4.370815|   -4.580210|   -4.536007|   -4.045669|  -11.256452|    2.887882|
|         322|  6.9327e+00|   -4.202210|   -4.369193|   -4.580647|   -4.536069|   -4.045505|  -11.257444|    2.870175|
|         323|  6.9320e+00|   -4.202719|   -4.367430|   -4.581167|   -4.536181|   -4.045413|  -11.258669|    2.852626|
|         324|  6.9309e+00|   -4.203360|   -4.365568|   -4.581774|   -4.536358|   -4.045401|  -11.260234|    2.835236|
|         325|  6.9297e+00|   -4.204133|   -4.363640|   -4.582477|   -4.536610|   -4.045468|  -11.261972|    2.818004|
|         326|  6.9287e+00|   -4.205024|   -4.361685|   -4.583277|   -4.536935|   -4.045605|  -11.263715|    2.800929|
|         327|  6.9280e+00|   -4.206029|   -4.359736|   -4.584173|   -4.537331|   -4.045817|  -11.265599|    2.784013|
|         328|  6.9269e+00|   -4.207159|   -4.357811|   -4.585168|   -4.537808|   -4.046117|  -11.267493|    2.767256|
|         329|  6.9258e+00|   -4.208416|   -4.355931|   -4.586266|   -4.538378|   -4.046516|  -11.269350|    2.750658|
|         330|  6.9247e+00|   -4.209806|   -4.354124|   -4.587469|   -4.539060|   -4.047029|  -11.271186|    2.734221|
|         331|  6.9240e+00|   -4.211337|   -4.352415|   -4.588777|   -4.539870|   -4.047666|  -11.272967|    2.717945|
|         332|  6.9233e+00|   -4.213011|   -4.350840|   -4.590192|   -4.540818|   -4.048436|  -11.274711|    2.701834|
|         333|  6.9225e+00|   -4.214799|   -4.349401|   -4.591691|   -4.541902|   -4.049309|  -11.276376|    2.685889|
|         334|  6.9214e+00|   -4.216703|   -4.348136|   -4.593283|   -4.543135|   -4.050292|  -11.277964|    2.670115|
|         335|  6.9205e+00|   -4.218722|   -4.347074|   -4.594971|   -4.544524|   -4.051392|  -11.279434|    2.654513|
|         336|  6.9195e+00|   -4.220854|   -4.346228|   -4.596753|   -4.546073|   -4.052612|  -11.280778|    2.639089|
|         337|  6.9187e+00|   -4.223099|   -4.345607|   -4.598629|   -4.547786|   -4.053963|  -11.282047|    2.623846|
|         338|  6.9177e+00|   -4.225479|   -4.345223|   -4.600618|   -4.549664|   -4.055470|  -11.283309|    2.608788|
|         339|  6.9167e+00|   -4.228005|   -4.345082|   -4.602727|   -4.551698|   -4.057147|  -11.284586|    2.593920|
|         340|  6.9157e+00|   -4.230654|   -4.345188|   -4.604951|   -4.553877|   -4.058978|  -11.285848|    2.579245|
|         341|  6.9147e+00|   -4.233406|   -4.345548|   -4.607283|   -4.556178|   -4.060946|  -11.287050|    2.564767|
|         342|  6.9139e+00|   -4.236251|   -4.346157|   -4.609706|   -4.558601|   -4.063038|  -11.288185|    2.550490|
|         343|  6.9130e+00|   -4.239178|   -4.347018|   -4.612209|   -4.561144|   -4.065245|  -11.289316|    2.536417|
|         344|  6.9118e+00|   -4.242178|   -4.348138|   -4.614794|   -4.563802|   -4.067560|  -11.290479|    2.522548|
|         345|  6.9110e+00|   -4.245248|   -4.349517|   -4.617456|   -4.566567|   -4.069986|  -11.291661|    2.508887|
|         346|  6.9099e+00|   -4.248392|   -4.351148|   -4.620196|   -4.569436|   -4.072525|  -11.292878|    2.495433|
|         347|  6.9090e+00|   -4.251604|   -4.353036|   -4.623008|   -4.572407|   -4.075179|  -11.294114|    2.482186|
|         348|  6.9083e+00|   -4.254891|   -4.355179|   -4.625886|   -4.575472|   -4.077958|  -11.295367|    2.469144|
|         349|  6.9074e+00|   -4.258258|   -4.357586|   -4.628835|   -4.578630|   -4.080872|  -11.296622|    2.456308|
|         350|  6.9064e+00|   -4.261696|   -4.360240|   -4.631854|   -4.581868|   -4.083910|  -11.297868|    2.443672|
|         351|  6.9052e+00|   -4.265198|   -4.363150|   -4.634938|   -4.585183|   -4.087069|  -11.299060|    2.431235|
|         352|  6.9042e+00|   -4.268744|   -4.366307|   -4.638065|   -4.588558|   -4.090326|  -11.300176|    2.418992|
|         353|  6.9034e+00|   -4.272321|   -4.369706|   -4.641225|   -4.591979|   -4.093670|  -11.301232|    2.406939|
|         354|  6.9022e+00|   -4.275917|   -4.373337|   -4.644406|   -4.595428|   -4.097084|  -11.302266|    2.395072|
|         355|  6.9011e+00|   -4.279527|   -4.377186|   -4.647595|   -4.598895|   -4.100563|  -11.303268|    2.383386|
|         356|  6.9001e+00|   -4.283146|   -4.381241|   -4.650782|   -4.602371|   -4.104103|  -11.304270|    2.371876|
|         357|  6.8993e+00|   -4.286775|   -4.385488|   -4.653967|   -4.605856|   -4.107706|  -11.305282|    2.360538|
|         358|  6.8984e+00|   -4.290409|   -4.389913|   -4.657144|   -4.609345|   -4.111366|  -11.306277|    2.349367|
|         359|  6.8975e+00|   -4.294043|   -4.394497|   -4.660313|   -4.612831|   -4.115072|  -11.307260|    2.338357|
|         360|  6.8968e+00|   -4.297666|   -4.399225|   -4.663466|   -4.616300|   -4.118810|  -11.308201|    2.327502|
|         361|  6.8956e+00|   -4.301273|   -4.404081|   -4.666599|   -4.619744|   -4.122568|  -11.309092|    2.316798|
|         362|  6.8946e+00|   -4.304858|   -4.409049|   -4.669711|   -4.623154|   -4.126338|  -11.309937|    2.306238|
|         363|  6.8937e+00|   -4.308425|   -4.414113|   -4.672802|   -4.626524|   -4.130119|  -11.310710|    2.295816|
|         364|  6.8927e+00|   -4.311973|   -4.419253|   -4.675873|   -4.629848|   -4.133907|  -11.311404|    2.285528|
|         365|  6.8917e+00|   -4.315510|   -4.424452|   -4.678920|   -4.633119|   -4.137704|  -11.312024|    2.275368|
|         366|  6.8907e+00|   -4.319024|   -4.429686|   -4.681931|   -4.636326|   -4.141497|  -11.312572|    2.265334|
|         367|  6.8898e+00|   -4.322513|   -4.434931|   -4.684902|   -4.639455|   -4.145273|  -11.313036|    2.255427|
|         368|  6.8890e+00|   -4.325972|   -4.440172|   -4.687821|   -4.642496|   -4.149023|  -11.313444|    2.245648|
|         369|  6.8881e+00|   -4.329389|   -4.445382|   -4.690683|   -4.645434|   -4.152729|  -11.313764|    2.236002|
|         370|  6.8873e+00|   -4.332759|   -4.450545|   -4.693479|   -4.648260|   -4.156381|  -11.313984|    2.226494|
|         371|  6.8864e+00|   -4.336081|   -4.455644|   -4.696198|   -4.650973|   -4.159977|  -11.314136|    2.217132|
|         372|  6.8857e+00|   -4.339348|   -4.460657|   -4.698829|   -4.653572|   -4.163509|  -11.314245|    2.207927|
|         373|  6.8850e+00|   -4.342562|   -4.465561|   -4.701369|   -4.656055|   -4.166972|  -11.314272|    2.198886|
|         374|  6.8842e+00|   -4.345723|   -4.470339|   -4.703819|   -4.658418|   -4.170365|  -11.314173|    2.190019|
|         375|  6.8834e+00|   -4.348834|   -4.474974|   -4.706184|   -4.660663|   -4.173684|  -11.313916|    2.181336|
|         376|  6.8826e+00|   -4.351888|   -4.479451|   -4.708467|   -4.662786|   -4.176925|  -11.313505|    2.172844|
|         377|  6.8819e+00|   -4.354882|   -4.483756|   -4.710674|   -4.664791|   -4.180086|  -11.312961|    2.164549|
|         378|  6.8811e+00|   -4.357811|   -4.487872|   -4.712803|   -4.666675|   -4.183164|  -11.312290|    2.156457|
|         379|  6.8803e+00|   -4.360668|   -4.491786|   -4.714841|   -4.668434|   -4.186152|  -11.311457|    2.148573|
|         380|  6.8794e+00|   -4.363452|   -4.495487|   -4.716775|   -4.670067|   -4.189049|  -11.310481|    2.140902|
|         381|  6.8787e+00|   -4.366155|   -4.498971|   -4.718594|   -4.671570|   -4.191850|  -11.309327|    2.133444|
|         382|  6.8781e+00|   -4.368774|   -4.502228|   -4.720292|   -4.672943|   -4.194554|  -11.308020|    2.126202|
|         383|  6.8775e+00|   -4.371313|   -4.505257|   -4.721872|   -4.674191|   -4.197162|  -11.306533|    2.119176|
|         384|  6.8768e+00|   -4.373764|   -4.508056|   -4.723340|   -4.675310|   -4.199668|  -11.304832|    2.112366|
|         385|  6.8760e+00|   -4.376122|   -4.510626|   -4.724702|   -4.676300|   -4.202074|  -11.302908|    2.105773|
|         386|  6.8752e+00|   -4.378375|   -4.512975|   -4.725962|   -4.677156|   -4.204376|  -11.300784|    2.099394|
|         387|  6.8746e+00|   -4.380524|   -4.515108|   -4.727135|   -4.677876|   -4.206580|  -11.298495|    2.093230|
|         388|  6.8739e+00|   -4.382562|   -4.517030|   -4.728227|   -4.678465|   -4.208680|  -11.296039|    2.087279|
|         389|  6.8734e+00|   -4.384480|   -4.518741|   -4.729234|   -4.678918|   -4.210668|  -11.293449|    2.081541|
|         390|  6.8725e+00|   -4.386275|   -4.520248|   -4.730165|   -4.679231|   -4.212548|  -11.290736|    2.076015|
|         391|  6.8716e+00|   -4.387948|   -4.521555|   -4.731024|   -4.679409|   -4.214321|  -11.287889|    2.070700|
|         392|  6.8707e+00|   -4.389492|   -4.522672|   -4.731807|   -4.679452|   -4.215984|  -11.284958|    2.065596|
|         393|  6.8699e+00|   -4.390904|   -4.523609|   -4.732510|   -4.679366|   -4.217537|  -11.281931|    2.060701|
|         394|  6.8695e+00|   -4.392187|   -4.524378|   -4.733133|   -4.679162|   -4.218991|  -11.278801|    2.056015|
|         395|  6.8687e+00|   -4.393339|   -4.524990|   -4.733676|   -4.678847|   -4.220349|  -11.275561|    2.051538|
|         396|  6.8678e+00|   -4.394352|   -4.525451|   -4.734134|   -4.678417|   -4.221604|  -11.272178|    2.047267|
|         397|  6.8671e+00|   -4.395210|   -4.525775|   -4.734506|   -4.677867|   -4.222752|  -11.268663|    2.043202|
|         398|  6.8665e+00|   -4.395905|   -4.525962|   -4.734786|   -4.677196|   -4.223784|  -11.265015|    2.039340|
|         399|  6.8660e+00|   -4.396422|   -4.526017|   -4.734974|   -4.676395|   -4.224688|  -11.261238|    2.035681|
|         400|  6.8653e+00|   -4.396756|   -4.525946|   -4.735070|   -4.675456|   -4.225457|  -11.257321|    2.032220|
|         401|  6.8646e+00|   -4.396891|   -4.525752|   -4.735070|   -4.674366|   -4.226078|  -11.253278|    2.028958|
|         402|  6.8640e+00|   -4.396820|   -4.525438|   -4.734970|   -4.673117|   -4.226543|  -11.249118|    2.025891|
|         403|  6.8632e+00|   -4.396536|   -4.525008|   -4.734774|   -4.671704|   -4.226851|  -11.244840|    2.023017|
|         404|  6.8624e+00|   -4.396034|   -4.524459|   -4.734482|   -4.670125|   -4.226995|  -11.240442|    2.020335|
|         405|  6.8617e+00|   -4.395307|   -4.523792|   -4.734094|   -4.668370|   -4.226970|  -11.235949|    2.017842|
|         406|  6.8611e+00|   -4.394349|   -4.523002|   -4.733605|   -4.666433|   -4.226767|  -11.231408|    2.015536|
|         407|  6.8607e+00|   -4.393156|   -4.522089|   -4.733014|   -4.664310|   -4.226383|  -11.226782|    2.013416|
|         408|  6.8612e+00|   -4.391728|   -4.521054|   -4.732315|   -4.661997|   -4.225812|  -11.222035|    2.011478|
|         409|  6.8617e+00|   -4.390055|   -4.519894|   -4.731505|   -4.659491|   -4.225042|  -11.217187|    2.009721|
|         410|  6.8611e+00|   -4.388139|   -4.518601|   -4.730584|   -4.656791|   -4.224068|  -11.212291|    2.008141|
|         411|  6.8605e+00|   -4.385977|   -4.517173|   -4.729550|   -4.653898|   -4.222888|  -11.207359|    2.006737|
|         412|  6.8601e+00|   -4.383569|   -4.515606|   -4.728398|   -4.650814|   -4.221496|  -11.202357|    2.005505|
|         413|  6.8594e+00|   -4.380913|   -4.513897|   -4.727120|   -4.647540|   -4.219887|  -11.197247|    2.004442|
|         414|  6.8588e+00|   -4.378011|   -4.512041|   -4.725703|   -4.644083|   -4.218054|  -11.192083|    2.003545|
|         415|  6.8583e+00|   -4.374861|   -4.510037|   -4.724135|   -4.640447|   -4.215992|  -11.186869|    2.002811|
|         416|  6.8576e+00|   -4.371475|   -4.507889|   -4.722406|   -4.636642|   -4.213704|  -11.181619|    2.002236|
|         417|  6.8569e+00|   -4.367858|   -4.505599|   -4.720505|   -4.632675|   -4.211192|  -11.176270|    2.001817|
|         418|  6.8565e+00|   -4.364024|   -4.503173|   -4.718430|   -4.628555|   -4.208462|  -11.170794|    2.001549|
|         419|  6.8559e+00|   -4.359990|   -4.500615|   -4.716181|   -4.624293|   -4.205525|  -11.165246|    2.001430|
|         420|  6.8552e+00|   -4.355772|   -4.497926|   -4.713762|   -4.619906|   -4.202395|  -11.159683|    2.001456|
|         421|  6.8547e+00|   -4.351385|   -4.495108|   -4.711177|   -4.615408|   -4.199084|  -11.154123|    2.001625|
|         422|  6.8540e+00|   -4.346844|   -4.492165|   -4.708432|   -4.610815|   -4.195602|  -11.148537|    2.001935|
|         423|  6.8532e+00|   -4.342165|   -4.489106|   -4.705533|   -4.606142|   -4.191960|  -11.142905|    2.002384|
|         424|  6.8525e+00|   -4.337363|   -4.485943|   -4.702488|   -4.601409|   -4.188172|  -11.137278|    2.002970|
|         425|  6.8518e+00|   -4.332453|   -4.482685|   -4.699304|   -4.596631|   -4.184252|  -11.131731|    2.003694|
|         426|  6.8511e+00|   -4.327452|   -4.479343|   -4.695987|   -4.591830|   -4.180213|  -11.126209|    2.004554|
|         427|  6.8504e+00|   -4.322371|   -4.475925|   -4.692540|   -4.587021|   -4.176070|  -11.120681|    2.005550|
|         428|  6.8498e+00|   -4.317226|   -4.472441|   -4.688969|   -4.582220|   -4.171836|  -11.115092|    2.006681|
|         429|  6.8492e+00|   -4.312031|   -4.468897|   -4.685278|   -4.577439|   -4.167525|  -11.109451|    2.007947|
|         430|  6.8488e+00|   -4.306798|   -4.465299|   -4.681473|   -4.572689|   -4.163148|  -11.103749|    2.009347|
|         431|  6.8482e+00|   -4.301536|   -4.461659|   -4.677558|   -4.567977|   -4.158714|  -11.097925|    2.010879|
|         432|  6.8475e+00|   -4.296252|   -4.457988|   -4.673536|   -4.563305|   -4.154231|  -11.092023|    2.012542|
|         433|  6.8470e+00|   -4.290957|   -4.454297|   -4.669417|   -4.558682|   -4.149708|  -11.086113|    2.014336|
|         434|  6.8463e+00|   -4.285659|   -4.450585|   -4.665209|   -4.554114|   -4.145154|  -11.080246|    2.016259|
|         435|  6.8455e+00|   -4.280369|   -4.446854|   -4.660926|   -4.549612|   -4.140580|  -11.074437|    2.018308|
|         436|  6.8448e+00|   -4.275097|   -4.443105|   -4.656577|   -4.545187|   -4.135997|  -11.068669|    2.020482|
|         437|  6.8441e+00|   -4.269849|   -4.439350|   -4.652174|   -4.540840|   -4.131413|  -11.062897|    2.022779|
|         438|  6.8436e+00|   -4.264631|   -4.435587|   -4.647725|   -4.536570|   -4.126830|  -11.057116|    2.025198|
|         439|  6.8429e+00|   -4.259445|   -4.431817|   -4.643236|   -4.532374|   -4.122251|  -11.051343|    2.027736|
|         440|  6.8423e+00|   -4.254300|   -4.428040|   -4.638719|   -4.528255|   -4.117682|  -11.045589|    2.030391|
|         441|  6.8417e+00|   -4.249200|   -4.424252|   -4.634179|   -4.524213|   -4.113126|  -11.039795|    2.033162|
|         442|  6.8412e+00|   -4.244145|   -4.420449|   -4.629618|   -4.520244|   -4.108580|  -11.033977|    2.036048|
|         443|  6.8407e+00|   -4.239137|   -4.416630|   -4.625043|   -4.516344|   -4.104046|  -11.028173|    2.039046|
|         444|  6.8401e+00|   -4.234183|   -4.412797|   -4.620461|   -4.512521|   -4.099531|  -11.022397|    2.042155|
|         445|  6.8396e+00|   -4.229287|   -4.408953|   -4.615886|   -4.508772|   -4.095041|  -11.016668|    2.045372|
|         446|  6.8391e+00|   -4.224452|   -4.405097|   -4.611322|   -4.505093|   -4.090575|  -11.010964|    2.048698|
|         447|  6.8385e+00|   -4.219682|   -4.401228|   -4.606779|   -4.501489|   -4.086142|  -11.005257|    2.052129|
|         448|  6.8378e+00|   -4.214978|   -4.397348|   -4.602265|   -4.497962|   -4.081744|  -10.999511|    2.055665|
|         449|  6.8371e+00|   -4.210347|   -4.393457|   -4.597792|   -4.494515|   -4.077390|  -10.993693|    2.059303|
|         450|  6.8364e+00|   -4.205786|   -4.389544|   -4.593365|   -4.491139|   -4.073073|  -10.987836|    2.063043|
+-----------------------------------------------------------------------+
|        File Writing Summary       |              Filename             |
+-----------------------------------------------------------------------+
|SU2 binary restart                 |restart_flow.dat                   |
|Paraview                           |flow.vtu                           |
|Paraview surface                   |surface_flow.vtu                   |
+-----------------------------------------------------------------------+
+--------------------------------------------------------------------------------------------------------------------+
|  Inner_Iter|   Time(sec)|    rms[Rho]|   rms[RhoU]|   rms[RhoV]|   rms[RhoW]|   rms[RhoE]|     rms[nu]|          CD|
+--------------------------------------------------------------------------------------------------------------------+
|         451|  6.8955e+00|   -4.201289|   -4.385609|   -4.588989|   -4.487825|   -4.068790|  -10.981928|    2.066881|
|         452|  6.8961e+00|   -4.196865|   -4.381657|   -4.584674|   -4.484587|   -4.064553|  -10.975982|    2.070816|
|         453|  6.8957e+00|   -4.192513|   -4.377690|   -4.580422|   -4.481419|   -4.060361|  -10.970035|    2.074846|
|         454|  6.8950e+00|   -4.188230|   -4.373712|   -4.576232|   -4.478323|   -4.056214|  -10.964064|    2.078969|
|         455|  6.8944e+00|   -4.184015|   -4.369725|   -4.572104|   -4.475293|   -4.052111|  -10.958072|    2.083182|
|         456|  6.8939e+00|   -4.179868|   -4.365734|   -4.568037|   -4.472328|   -4.048052|  -10.952057|    2.087484|
|         457|  6.8931e+00|   -4.175797|   -4.361752|   -4.564037|   -4.469440|   -4.044052|  -10.946055|    2.091872|
|         458|  6.8925e+00|   -4.171797|   -4.357782|   -4.560100|   -4.466622|   -4.040106|  -10.940064|    2.096343|
|         459|  6.8918e+00|   -4.167869|   -4.353835|   -4.556228|   -4.463873|   -4.036218|  -10.934051|    2.100894|
|         460|  6.8913e+00|   -4.164012|   -4.349918|   -4.552426|   -4.461198|   -4.032394|  -10.927995|    2.105524|
|         461|  6.8906e+00|   -4.160228|   -4.346039|   -4.548699|   -4.458593|   -4.028635|  -10.921891|    2.110229|
|         462|  6.8899e+00|   -4.156512|   -4.342198|   -4.545043|   -4.456054|   -4.024938|  -10.915741|    2.115006|
|         463|  6.8892e+00|   -4.152869|   -4.338405|   -4.541468|   -4.453585|   -4.021311|  -10.909572|    2.119852|
|         464|  6.8883e+00|   -4.149306|   -4.334668|   -4.537980|   -4.451189|   -4.017762|  -10.903410|    2.124765|
|         465|  6.8876e+00|   -4.145814|   -4.330994|   -4.534577|   -4.448859|   -4.014285|  -10.897254|    2.129741|
|         466|  6.8870e+00|   -4.142396|   -4.327387|   -4.531262|   -4.446589|   -4.010880|  -10.891129|    2.134778|
|         467|  6.8863e+00|   -4.139050|   -4.323850|   -4.528031|   -4.444383|   -4.007550|  -10.885009|    2.139874|
|         468|  6.8857e+00|   -4.135778|   -4.320390|   -4.524891|   -4.442236|   -4.004296|  -10.878864|    2.145026|
|         469|  6.8851e+00|   -4.132583|   -4.317013|   -4.521845|   -4.440151|   -4.001125|  -10.872668|    2.150232|
|         470|  6.8844e+00|   -4.129462|   -4.313721|   -4.518893|   -4.438124|   -3.998033|  -10.866374|    2.155491|
|         471|  6.8838e+00|   -4.126412|   -4.310516|   -4.516029|   -4.436147|   -3.995014|  -10.859964|    2.160800|
|         472|  6.8831e+00|   -4.123434|   -4.307401|   -4.513254|   -4.434226|   -3.992075|  -10.853457|    2.166159|
|         473|  6.8824e+00|   -4.120541|   -4.304381|   -4.510575|   -4.432382|   -3.989230|  -10.846924|    2.171567|
|         474|  6.8817e+00|   -4.117730|   -4.301456|   -4.507993|   -4.430609|   -3.986476|  -10.840389|    2.177023|
|         475|  6.8811e+00|   -4.114997|   -4.298626|   -4.505500|   -4.428899|   -3.983806|  -10.833861|    2.182525|
|         476|  6.8805e+00|   -4.112348|   -4.295887|   -4.503095|   -4.427268|   -3.981225|  -10.827330|    2.188074|
|         477|  6.8798e+00|   -4.109778|   -4.293242|   -4.500780|   -4.425710|   -3.978727|  -10.820786|    2.193667|
|         478|  6.8792e+00|   -4.107295|   -4.290688|   -4.498565|   -4.424236|   -3.976322|  -10.814260|    2.199303|
|         479|  6.8784e+00|   -4.104903|   -4.288224|   -4.496452|   -4.422850|   -3.974010|  -10.807764|    2.204982|
|         480|  6.8778e+00|   -4.102601|   -4.285849|   -4.494444|   -4.421555|   -3.971791|  -10.801289|    2.210700|
|         481|  6.8774e+00|   -4.100383|   -4.283559|   -4.492536|   -4.420334|   -3.969654|  -10.794838|    2.216457|
|         482|  6.8767e+00|   -4.098256|   -4.281361|   -4.490728|   -4.419191|   -3.967608|  -10.788405|    2.222249|
|         483|  6.8761e+00|   -4.096228|   -4.279259|   -4.489025|   -4.418143|   -3.965661|  -10.781975|    2.228075|
|         484|  6.8752e+00|   -4.094280|   -4.277240|   -4.487414|   -4.417170|   -3.963791|  -10.775546|    2.233930|
|         485|  6.8745e+00|   -4.092412|   -4.275301|   -4.485893|   -4.416268|   -3.961999|  -10.769136|    2.239812|
|         486|  6.8739e+00|   -4.090633|   -4.273450|   -4.484469|   -4.415451|   -3.960301|  -10.762743|    2.245717|
|         487|  6.8733e+00|   -4.088947|   -4.271689|   -4.483140|   -4.414720|   -3.958697|  -10.756366|    2.251642|
|         488|  6.8726e+00|   -4.087358|   -4.270025|   -4.481905|   -4.414075|   -3.957193|  -10.750030|    2.257580|
|         489|  6.8720e+00|   -4.085849|   -4.268450|   -4.480753|   -4.413503|   -3.955769|  -10.743727|    2.263530|
|         490|  6.8712e+00|   -4.084419|   -4.266960|   -4.479681|   -4.412999|   -3.954425|  -10.737457|    2.269484|
|         491|  6.8705e+00|   -4.083068|   -4.265555|   -4.478684|   -4.412554|   -3.953160|  -10.731215|    2.275439|
|         492|  6.8698e+00|   -4.081795|   -4.264234|   -4.477760|   -4.412169|   -3.951977|  -10.724977|    2.281389|
|         493|  6.8692e+00|   -4.080596|   -4.262996|   -4.476911|   -4.411838|   -3.950874|  -10.718756|    2.287329|
|         494|  6.8686e+00|   -4.079474|   -4.261842|   -4.476141|   -4.411562|   -3.949856|  -10.712570|    2.293253|
|         495|  6.8679e+00|   -4.078430|   -4.260774|   -4.475450|   -4.411347|   -3.948924|  -10.706425|    2.299157|
|         496|  6.8673e+00|   -4.077474|   -4.259791|   -4.474848|   -4.411191|   -3.948087|  -10.700282|    2.305039|
|         497|  6.8668e+00|   -4.076596|   -4.258885|   -4.474318|   -4.411084|   -3.947329|  -10.694109|    2.310895|
|         498|  6.8660e+00|   -4.075789|   -4.258049|   -4.473856|   -4.411014|   -3.946640|  -10.687943|    2.316724|
|         499|  6.8651e+00|   -4.075056|   -4.257285|   -4.473452|   -4.410984|   -3.946025|  -10.681760|    2.322528|
|         500|  6.8643e+00|   -4.074400|   -4.256592|   -4.473104|   -4.410996|   -3.945487|  -10.675538|    2.328306|
|         501|  6.8636e+00|   -4.073823|   -4.255971|   -4.472816|   -4.411057|   -3.945029|  -10.669318|    2.334060|
|         502|  6.8630e+00|   -4.073321|   -4.255416|   -4.472581|   -4.411174|   -3.944649|  -10.663120|    2.339792|
|         503|  6.8625e+00|   -4.072895|   -4.254922|   -4.472399|   -4.411357|   -3.944350|  -10.656918|    2.345504|
|         504|  6.8618e+00|   -4.072550|   -4.254491|   -4.472277|   -4.411612|   -3.944140|  -10.650748|    2.351196|
|         505|  6.8611e+00|   -4.072281|   -4.254113|   -4.472213|   -4.411937|   -3.944010|  -10.644605|    2.356868|
|         506|  6.8606e+00|   -4.072075|   -4.253776|   -4.472197|   -4.412318|   -3.943941|  -10.638498|    2.362520|
|         507|  6.8601e+00|   -4.071937|   -4.253474|   -4.472225|   -4.412767|   -3.943939|  -10.632439|    2.368148|
|         508|  6.8595e+00|   -4.071862|   -4.253204|   -4.472294|   -4.413285|   -3.944000|  -10.626448|    2.373751|
|         509|  6.8590e+00|   -4.071859|   -4.252961|   -4.472403|   -4.413888|   -3.944133|  -10.620512|    2.379325|
|         510|  6.8585e+00|   -4.071919|   -4.252740|   -4.472546|   -4.414568|   -3.944330|  -10.614593|    2.384869|
|         511|  6.8580e+00|   -4.072029|   -4.252536|   -4.472715|   -4.415308|   -3.944570|  -10.608694|    2.390381|
|         512|  6.8574e+00|   -4.072184|   -4.252344|   -4.472909|   -4.416093|   -3.944849|  -10.602819|    2.395859|
|         513|  6.8568e+00|   -4.072387|   -4.252168|   -4.473137|   -4.416922|   -3.945174|  -10.596929|    2.401304|
|         514|  6.8562e+00|   -4.072648|   -4.252011|   -4.473411|   -4.417807|   -3.945558|  -10.590998|    2.406716|
|         515|  6.8557e+00|   -4.072950|   -4.251865|   -4.473719|   -4.418735|   -3.945977|  -10.585053|    2.412098|
|         516|  6.8550e+00|   -4.073286|   -4.251729|   -4.474061|   -4.419696|   -3.946428|  -10.579067|    2.417453|
|         517|  6.8543e+00|   -4.073668|   -4.251608|   -4.474440|   -4.420705|   -3.946923|  -10.573021|    2.422785|
|         518|  6.8537e+00|   -4.074085|   -4.251506|   -4.474857|   -4.421742|   -3.947452|  -10.566965|    2.428097|
|         519|  6.8531e+00|   -4.074544|   -4.251431|   -4.475316|   -4.422815|   -3.948025|  -10.560899|    2.433394|
|         520|  6.8526e+00|   -4.075046|   -4.251389|   -4.475816|   -4.423921|   -3.948643|  -10.554834|    2.438680|
|         521|  6.8520e+00|   -4.075598|   -4.251385|   -4.476367|   -4.425072|   -3.949313|  -10.548815|    2.443959|
|         522|  6.8513e+00|   -4.076194|   -4.251418|   -4.476969|   -4.426256|   -3.950026|  -10.542845|    2.449234|
|         523|  6.8509e+00|   -4.076830|   -4.251492|   -4.477619|   -4.427465|   -3.950778|  -10.536929|    2.454508|
|         524|  6.8505e+00|   -4.077510|   -4.251613|   -4.478325|   -4.428700|   -3.951573|  -10.531126|    2.459783|
|         525|  6.8498e+00|   -4.078233|   -4.251784|   -4.479079|   -4.429961|   -3.952409|  -10.525454|    2.465060|
|         526|  6.8493e+00|   -4.079005|   -4.252011|   -4.479887|   -4.431241|   -3.953289|  -10.519897|    2.470338|
|         527|  6.8488e+00|   -4.079823|   -4.252306|   -4.480751|   -4.432537|   -3.954215|  -10.514401|    2.475617|
|         528|  6.8482e+00|   -4.080696|   -4.252680|   -4.481670|   -4.433867|   -3.955199|  -10.508883|    2.480897|
|         529|  6.8477e+00|   -4.081626|   -4.253136|   -4.482652|   -4.435230|   -3.956242|  -10.503324|    2.486175|
|         530|  6.8471e+00|   -4.082603|   -4.253673|   -4.483691|   -4.436616|   -3.957335|  -10.497757|    2.491449|
|         531|  6.8466e+00|   -4.083639|   -4.254303|   -4.484808|   -4.438034|   -3.958496|  -10.492201|    2.496717|
|         532|  6.8461e+00|   -4.084729|   -4.255028|   -4.485988|   -4.439486|   -3.959715|  -10.486673|    2.501977|
|         533|  6.8456e+00|   -4.085881|   -4.255856|   -4.487239|   -4.440976|   -3.961004|  -10.481162|    2.507224|
|         534|  6.8450e+00|   -4.087092|   -4.256784|   -4.488561|   -4.442504|   -3.962357|  -10.475671|    2.512455|
|         535|  6.8446e+00|   -4.088353|   -4.257813|   -4.489946|   -4.444063|   -3.963764|  -10.470185|    2.517667|
|         536|  6.8439e+00|   -4.089661|   -4.258941|   -4.491384|   -4.445649|   -3.965221|  -10.464677|    2.522854|
|         537|  6.8433e+00|   -4.091027|   -4.260180|   -4.492889|   -4.447269|   -3.966745|  -10.459136|    2.528013|
|         538|  6.8428e+00|   -4.092435|   -4.261521|   -4.494445|   -4.448904|   -3.968313|  -10.453559|    2.533139|
[...]
|        9314|  6.7880e+00|   -7.864461|   -7.835643|   -8.272686|   -8.117111|   -7.720651|   -8.856618|    2.592653|
|        9315|  6.7880e+00|   -7.864492|   -7.835631|   -8.272712|   -8.117077|   -7.720680|   -8.856584|    2.592651|
|        9316|  6.7881e+00|   -7.864521|   -7.835621|   -8.272732|   -8.117035|   -7.720709|   -8.856548|    2.592650|
|        9317|  6.7881e+00|   -7.864546|   -7.835613|   -8.272746|   -8.116986|   -7.720737|   -8.856511|    2.592648|
|        9318|  6.7881e+00|   -7.864569|   -7.835609|   -8.272756|   -8.116929|   -7.720764|   -8.856473|    2.592647|
|        9319|  6.7882e+00|   -7.864589|   -7.835607|   -8.272761|   -8.116865|   -7.720791|   -8.856435|    2.592645|
|        9320|  6.7882e+00|   -7.864605|   -7.835606|   -8.272760|   -8.116795|   -7.720816|   -8.856395|    2.592644|
|        9321|  6.7882e+00|   -7.864618|   -7.835609|   -8.272752|   -8.116717|   -7.720839|   -8.856355|    2.592642|
|        9322|  6.7881e+00|   -7.864628|   -7.835614|   -8.272739|   -8.116632|   -7.720861|   -8.856314|    2.592641|
|        9323|  6.7881e+00|   -7.864635|   -7.835623|   -8.272720|   -8.116541|   -7.720883|   -8.856272|    2.592639|
|        9324|  6.7881e+00|   -7.864639|   -7.835634|   -8.272694|   -8.116443|   -7.720902|   -8.856230|    2.592638|
|        9325|  6.7881e+00|   -7.864640|   -7.835647|   -8.272661|   -8.116338|   -7.720921|   -8.856187|    2.592636|
|        9326|  6.7880e+00|   -7.864637|   -7.835663|   -8.272623|   -8.116227|   -7.720938|   -8.856143|    2.592635|
|        9327|  6.7880e+00|   -7.864630|   -7.835679|   -8.272578|   -8.116110|   -7.720952|   -8.856099|    2.592633|
|        9328|  6.7880e+00|   -7.864619|   -7.835698|   -8.272526|   -8.115987|   -7.720964|   -8.856054|    2.592632|
|        9329|  6.7880e+00|   -7.864604|   -7.835719|   -8.272467|   -8.115859|   -7.720975|   -8.856009|    2.592630|
|        9330|  6.7880e+00|   -7.864587|   -7.835743|   -8.272402|   -8.115725|   -7.720985|   -8.855963|    2.592629|
|        9331|  6.7880e+00|   -7.864564|   -7.835768|   -8.272330|   -8.115586|   -7.720991|   -8.855917|    2.592627|
|        9332|  6.7879e+00|   -7.864537|   -7.835794|   -8.272252|   -8.115442|   -7.720994|   -8.855871|    2.592626|
|        9333|  6.7879e+00|   -7.864505|   -7.835819|   -8.272166|   -8.115293|   -7.720993|   -8.855825|    2.592624|
|        9334|  6.7879e+00|   -7.864469|   -7.835846|   -8.272076|   -8.115138|   -7.720990|   -8.855778|    2.592623|
|        9335|  6.7878e+00|   -7.864428|   -7.835873|   -8.271980|   -8.114979|   -7.720984|   -8.855731|    2.592621|
|        9336|  6.7878e+00|   -7.864383|   -7.835900|   -8.271879|   -8.114816|   -7.720975|   -8.855684|    2.592620|
|        9337|  6.7878e+00|   -7.864334|   -7.835929|   -8.271773|   -8.114649|   -7.720963|   -8.855636|    2.592618|
|        9338|  6.7878e+00|   -7.864281|   -7.835959|   -8.271664|   -8.114479|   -7.720950|   -8.855589|    2.592617|
|        9339|  6.7878e+00|   -7.864224|   -7.835991|   -8.271552|   -8.114306|   -7.720935|   -8.855542|    2.592615|
|        9340|  6.7878e+00|   -7.864165|   -7.836025|   -8.271436|   -8.114131|   -7.720919|   -8.855494|    2.592614|
|        9341|  6.7877e+00|   -7.864104|   -7.836062|   -8.271319|   -8.113954|   -7.720903|   -8.855447|    2.592612|
|        9342|  6.7877e+00|   -7.864040|   -7.836102|   -8.271201|   -8.113775|   -7.720886|   -8.855400|    2.592611|
|        9343|  6.7877e+00|   -7.863973|   -7.836144|   -8.271080|   -8.113595|   -7.720867|   -8.855353|    2.592610|
|        9344|  6.7877e+00|   -7.863904|   -7.836187|   -8.270958|   -8.113413|   -7.720848|   -8.855306|    2.592608|
|        9345|  6.7877e+00|   -7.863833|   -7.836233|   -8.270833|   -8.113231|   -7.720826|   -8.855259|    2.592607|
|        9346|  6.7877e+00|   -7.863759|   -7.836281|   -8.270707|   -8.113048|   -7.720804|   -8.855213|    2.592605|
|        9347|  6.7876e+00|   -7.863683|   -7.836331|   -8.270580|   -8.112865|   -7.720781|   -8.855167|    2.592604|
|        9348|  6.7876e+00|   -7.863606|   -7.836385|   -8.270453|   -8.112683|   -7.720758|   -8.855121|    2.592602|
|        9349|  6.7876e+00|   -7.863528|   -7.836442|   -8.270325|   -8.112501|   -7.720735|   -8.855076|    2.592601|
|        9350|  6.7876e+00|   -7.863449|   -7.836501|   -8.270197|   -8.112321|   -7.720711|   -8.855031|    2.592599|
|        9351|  6.7875e+00|   -7.863369|   -7.836564|   -8.270069|   -8.112142|   -7.720687|   -8.854987|    2.592598|
|        9352|  6.7875e+00|   -7.863289|   -7.836629|   -8.269942|   -8.111966|   -7.720664|   -8.854943|    2.592597|
|        9353|  6.7875e+00|   -7.863208|   -7.836695|   -8.269814|   -8.111791|   -7.720640|   -8.854899|    2.592595|
|        9354|  6.7875e+00|   -7.863124|   -7.836763|   -8.269686|   -8.111620|   -7.720614|   -8.854856|    2.592594|
|        9355|  6.7875e+00|   -7.863039|   -7.836830|   -8.269557|   -8.111451|   -7.720585|   -8.854814|    2.592592|
|        9356|  6.7874e+00|   -7.862952|   -7.836898|   -8.269428|   -8.111285|   -7.720556|   -8.854773|    2.592591|
|        9357|  6.7874e+00|   -7.862863|   -7.836965|   -8.269300|   -8.111123|   -7.720526|   -8.854732|    2.592589|
|        9358|  6.7874e+00|   -7.862773|   -7.837032|   -8.269172|   -8.110964|   -7.720493|   -8.854692|    2.592588|
|        9359|  6.7874e+00|   -7.862682|   -7.837098|   -8.269047|   -8.110808|   -7.720459|   -8.854652|    2.592586|
|        9360|  6.7873e+00|   -7.862590|   -7.837164|   -8.268924|   -8.110657|   -7.720425|   -8.854613|    2.592585|
|        9361|  6.7873e+00|   -7.862497|   -7.837230|   -8.268803|   -8.110511|   -7.720390|   -8.854575|    2.592584|
|        9362|  6.7873e+00|   -7.862404|   -7.837295|   -8.268683|   -8.110369|   -7.720353|   -8.854538|    2.592582|
|        9363|  6.7873e+00|   -7.862309|   -7.837359|   -8.268564|   -8.110231|   -7.720315|   -8.854502|    2.592581|
|        9364|  6.7872e+00|   -7.862214|   -7.837423|   -8.268448|   -8.110098|   -7.720276|   -8.854467|    2.592579|
|        9365|  6.7872e+00|   -7.862118|   -7.837484|   -8.268334|   -8.109970|   -7.720235|   -8.854432|    2.592578|
|        9366|  6.7872e+00|   -7.862022|   -7.837543|   -8.268220|   -8.109846|   -7.720192|   -8.854398|    2.592576|
|        9367|  6.7872e+00|   -7.861924|   -7.837600|   -8.268108|   -8.109728|   -7.720147|   -8.854366|    2.592575|
|        9368|  6.7872e+00|   -7.861825|   -7.837653|   -8.267998|   -8.109615|   -7.720100|   -8.854334|    2.592574|
|        9369|  6.7871e+00|   -7.861727|   -7.837704|   -8.267891|   -8.109507|   -7.720051|   -8.854303|    2.592572|
|        9370|  6.7871e+00|   -7.861628|   -7.837753|   -8.267787|   -8.109404|   -7.720001|   -8.854273|    2.592571|
|        9371|  6.7871e+00|   -7.861529|   -7.837799|   -8.267685|   -8.109307|   -7.719949|   -8.854245|    2.592569|
|        9372|  6.7870e+00|   -7.861429|   -7.837841|   -8.267586|   -8.109216|   -7.719895|   -8.854217|    2.592568|
|        9373|  6.7870e+00|   -7.861330|   -7.837881|   -8.267490|   -8.109131|   -7.719840|   -8.854190|    2.592566|
|        9374|  6.7870e+00|   -7.861231|   -7.837917|   -8.267397|   -8.109051|   -7.719784|   -8.854165|    2.592565|
|        9375|  6.7870e+00|   -7.861133|   -7.837952|   -8.267307|   -8.108977|   -7.719726|   -8.854140|    2.592564|
|        9376|  6.7870e+00|   -7.861036|   -7.837984|   -8.267221|   -8.108909|   -7.719668|   -8.854117|    2.592562|
|        9377|  6.7870e+00|   -7.860941|   -7.838015|   -8.267138|   -8.108847|   -7.719610|   -8.854094|    2.592561|
|        9378|  6.7869e+00|   -7.860848|   -7.838045|   -8.267059|   -8.108792|   -7.719552|   -8.854073|    2.592559|
|        9379|  6.7869e+00|   -7.860757|   -7.838073|   -8.266984|   -8.108742|   -7.719495|   -8.854052|    2.592558|
|        9380|  6.7869e+00|   -7.860668|   -7.838100|   -8.266914|   -8.108699|   -7.719439|   -8.854033|    2.592556|
|        9381|  6.7869e+00|   -7.860582|   -7.838126|   -8.266848|   -8.108662|   -7.719384|   -8.854015|    2.592555|
|        9382|  6.7869e+00|   -7.860498|   -7.838150|   -8.266787|   -8.108631|   -7.719330|   -8.853998|    2.592554|
|        9383|  6.7869e+00|   -7.860418|   -7.838172|   -8.266731|   -8.108606|   -7.719276|   -8.853983|    2.592552|
|        9384|  6.7869e+00|   -7.860340|   -7.838194|   -8.266680|   -8.108588|   -7.719225|   -8.853968|    2.592551|
|        9385|  6.7868e+00|   -7.860266|   -7.838215|   -8.266635|   -8.108576|   -7.719174|   -8.853955|    2.592549|
|        9386|  6.7868e+00|   -7.860195|   -7.838236|   -8.266595|   -8.108570|   -7.719126|   -8.853942|    2.592548|
|        9387|  6.7868e+00|   -7.860128|   -7.838255|   -8.266560|   -8.108570|   -7.719079|   -8.853931|    2.592546|
|        9388|  6.7868e+00|   -7.860066|   -7.838274|   -8.266532|   -8.108577|   -7.719036|   -8.853921|    2.592545|
|        9389|  6.7868e+00|   -7.860011|   -7.838295|   -8.266513|   -8.108590|   -7.718997|   -8.853912|    2.592543|
|        9390|  6.7868e+00|   -7.859959|   -7.838314|   -8.266498|   -8.108610|   -7.718960|   -8.853904|    2.592542|
|        9391|  6.7867e+00|   -7.859911|   -7.838332|   -8.266489|   -8.108636|   -7.718925|   -8.853897|    2.592540|
|        9392|  6.7867e+00|   -7.859867|   -7.838350|   -8.266483|   -8.108668|   -7.718892|   -8.853892|    2.592539|
|        9393|  6.7867e+00|   -7.859828|   -7.838366|   -8.266481|   -8.108706|   -7.718860|   -8.853887|    2.592537|
|        9394|  6.7867e+00|   -7.859792|   -7.838381|   -8.266484|   -8.108750|   -7.718831|   -8.853884|    2.592536|
|        9395|  6.7867e+00|   -7.859763|   -7.838397|   -8.266494|   -8.108799|   -7.718805|   -8.853881|    2.592535|
|        9396|  6.7867e+00|   -7.859739|   -7.838413|   -8.266509|   -8.108855|   -7.718783|   -8.853880|    2.592533|
|        9397|  6.7867e+00|   -7.859721|   -7.838431|   -8.266530|   -8.108916|   -7.718766|   -8.853880|    2.592532|
|        9398|  6.7866e+00|   -7.859709|   -7.838450|   -8.266558|   -8.108982|   -7.718754|   -8.853880|    2.592530|
|        9399|  6.7866e+00|   -7.859704|   -7.838470|   -8.266591|   -8.109054|   -7.718746|   -8.853882|    2.592529|
|        9400|  6.7866e+00|   -7.859703|   -7.838490|   -8.266630|   -8.109131|   -7.718741|   -8.853885|    2.592527|
|        9401|  6.7866e+00|   -7.859709|   -7.838509|   -8.266674|   -8.109214|   -7.718739|   -8.853889|    2.592526|
|        9402|  6.7866e+00|   -7.859720|   -7.838528|   -8.266723|   -8.109302|   -7.718741|   -8.853893|    2.592524|
|        9403|  6.7866e+00|   -7.859737|   -7.838548|   -8.266777|   -8.109395|   -7.718747|   -8.853899|    2.592523|
|        9404|  6.7866e+00|   -7.859761|   -7.838571|   -8.266839|   -8.109494|   -7.718759|   -8.853905|    2.592521|
|        9405|  6.7865e+00|   -7.859794|   -7.838597|   -8.266908|   -8.109598|   -7.718778|   -8.853913|    2.592520|
|        9406|  6.7865e+00|   -7.859835|   -7.838627|   -8.266984|   -8.109707|   -7.718804|   -8.853921|    2.592518|
|        9407|  6.7865e+00|   -7.859883|   -7.838659|   -8.267066|   -8.109821|   -7.718837|   -8.853930|    2.592517|
|        9408|  6.7865e+00|   -7.859937|   -7.838692|   -8.267151|   -8.109939|   -7.718872|   -8.853940|    2.592515|
|        9409|  6.7864e+00|   -7.859994|   -7.838723|   -8.267239|   -8.110061|   -7.718909|   -8.853951|    2.592514|
|        9410|  6.7864e+00|   -7.860056|   -7.838752|   -8.267329|   -8.110187|   -7.718948|   -8.853962|    2.592512|
|        9411|  6.7864e+00|   -7.860122|   -7.838780|   -8.267422|   -8.110316|   -7.718988|   -8.853974|    2.592511|
|        9412|  6.7864e+00|   -7.860193|   -7.838807|   -8.267519|   -8.110448|   -7.719032|   -8.853987|    2.592509|
|        9413|  6.7864e+00|   -7.860267|   -7.838832|   -8.267619|   -8.110583|   -7.719077|   -8.854001|    2.592508|
|        9414|  6.7863e+00|   -7.860345|   -7.838855|   -8.267723|   -8.110721|   -7.719125|   -8.854015|    2.592506|
|        9415|  6.7863e+00|   -7.860427|   -7.838878|   -8.267830|   -8.110861|   -7.719175|   -8.854029|    2.592505|
|        9416|  6.7863e+00|   -7.860513|   -7.838898|   -8.267941|   -8.111004|   -7.719228|   -8.854045|    2.592503|
|        9417|  6.7863e+00|   -7.860604|   -7.838919|   -8.268055|   -8.111149|   -7.719285|   -8.854060|    2.592502|
|        9418|  6.7862e+00|   -7.860699|   -7.838940|   -8.268172|   -8.111296|   -7.719345|   -8.854076|    2.592500|
|        9419|  6.7862e+00|   -7.860798|   -7.838958|   -8.268292|   -8.111444|   -7.719407|   -8.854093|    2.592499|
|        9420|  6.7862e+00|   -7.860901|   -7.838977|   -8.268415|   -8.111594|   -7.719472|   -8.854110|    2.592497|
|        9421|  6.7862e+00|   -7.861009|   -7.838996|   -8.268542|   -8.111745|   -7.719542|   -8.854128|    2.592496|
|        9422|  6.7861e+00|   -7.861121|   -7.839016|   -8.268672|   -8.111897|   -7.719614|   -8.854145|    2.592494|
|        9423|  6.7861e+00|   -7.861237|   -7.839036|   -8.268806|   -8.112050|   -7.719690|   -8.854164|    2.592493|
|        9424|  6.7861e+00|   -7.861357|   -7.839056|   -8.268942|   -8.112204|   -7.719769|   -8.854182|    2.592491|
|        9425|  6.7861e+00|   -7.861481|   -7.839077|   -8.269081|   -8.112359|   -7.719851|   -8.854200|    2.592490|
|        9426|  6.7861e+00|   -7.861609|   -7.839099|   -8.269224|   -8.112514|   -7.719937|   -8.854219|    2.592488|
|        9427|  6.7860e+00|   -7.861740|   -7.839121|   -8.269370|   -8.112669|   -7.720025|   -8.854238|    2.592487|
|        9428|  6.7860e+00|   -7.861876|   -7.839144|   -8.269519|   -8.112825|   -7.720115|   -8.854257|    2.592485|
|        9429|  6.7860e+00|   -7.862016|   -7.839170|   -8.269671|   -8.112980|   -7.720211|   -8.854276|    2.592484|
|        9430|  6.7859e+00|   -7.862159|   -7.839196|   -8.269825|   -8.113135|   -7.720309|   -8.854295|    2.592482|
|        9431|  6.7859e+00|   -7.862305|   -7.839223|   -8.269980|   -8.113289|   -7.720408|   -8.854314|    2.592481|
|        9432|  6.7859e+00|   -7.862453|   -7.839250|   -8.270137|   -8.113442|   -7.720511|   -8.854333|    2.592479|
|        9433|  6.7859e+00|   -7.862605|   -7.839278|   -8.270294|   -8.113594|   -7.720615|   -8.854351|    2.592478|
|        9434|  6.7859e+00|   -7.862758|   -7.839305|   -8.270452|   -8.113745|   -7.720721|   -8.854370|    2.592476|
|        9435|  6.7858e+00|   -7.862913|   -7.839332|   -8.270612|   -8.113893|   -7.720829|   -8.854388|    2.592475|
|        9436|  6.7858e+00|   -7.863069|   -7.839361|   -8.270773|   -8.114040|   -7.720939|   -8.854407|    2.592473|
|        9437|  6.7858e+00|   -7.863227|   -7.839389|   -8.270936|   -8.114184|   -7.721049|   -8.854424|    2.592472|
|        9438|  6.7858e+00|   -7.863386|   -7.839417|   -8.271100|   -8.114327|   -7.721160|   -8.854442|    2.592470|
|        9439|  6.7858e+00|   -7.863545|   -7.839444|   -8.271264|   -8.114466|   -7.721271|   -8.854459|    2.592469|
|        9440|  6.7857e+00|   -7.863705|   -7.839471|   -8.271428|   -8.114604|   -7.721384|   -8.854476|    2.592467|
|        9441|  6.7857e+00|   -7.863866|   -7.839499|   -8.271594|   -8.114739|   -7.721498|   -8.854492|    2.592466|
|        9442|  6.7857e+00|   -7.864028|   -7.839528|   -8.271760|   -8.114871|   -7.721614|   -8.854508|    2.592464|
|        9443|  6.7857e+00|   -7.864191|   -7.839558|   -8.271925|   -8.115001|   -7.721732|   -8.854523|    2.592463|
|        9444|  6.7856e+00|   -7.864352|   -7.839586|   -8.272088|   -8.115128|   -7.721849|   -8.854538|    2.592461|
|        9445|  6.7856e+00|   -7.864512|   -7.839612|   -8.272249|   -8.115252|   -7.721965|   -8.854552|    2.592460|
|        9446|  6.7856e+00|   -7.864671|   -7.839640|   -8.272409|   -8.115374|   -7.722082|   -8.854566|    2.592458|
|        9447|  6.7856e+00|   -7.864831|   -7.839668|   -8.272568|   -8.115492|   -7.722200|   -8.854579|    2.592457|
|        9448|  6.7856e+00|   -7.864988|   -7.839696|   -8.272725|   -8.115606|   -7.722317|   -8.854591|    2.592455|
|        9449|  6.7855e+00|   -7.865145|   -7.839723|   -8.272878|   -8.115717|   -7.722433|   -8.854603|    2.592454|
|        9450|  6.7856e+00|   -7.865300|   -7.839751|   -8.273031|   -8.115824|   -7.722550|   -8.854613|    2.592452|
+-----------------------------------------------------------------------+
|        File Writing Summary       |              Filename             |
+-----------------------------------------------------------------------+
|SU2 binary restart                 |restart_flow.dat                   |
|Paraview                           |flow.vtu                           |

scontrol show job 1228483
JobId=1228483 JobName=m1.5_aoa15
   UserId=anthonyy(3152141) GroupId=anthonyy(3152141) MCS_label=N/A
   Priority=659243 Nice=0 Account=rrg-jphickey QOS=normal
   JobState=COMPLETING Reason=TimeLimit Dependency=(null)
   Requeue=0 Restarts=0 BatchFlag=1 Reboot=0 ExitCode=0:15
   RunTime=18:00:06 TimeLimit=18:00:00 TimeMin=N/A
   SubmitTime=2026-03-25T02:35:45 EligibleTime=2026-03-25T02:35:45
   AccrueTime=2026-03-25T02:35:45
   StartTime=2026-03-25T16:57:24 EndTime=2026-03-26T10:57:30 Deadline=N/A
   SuspendTime=None SecsPreSuspend=0 LastSchedEval=2026-03-25T16:57:24 Scheduler=Backfill
   Partition=compute AllocNode:Sid=tri-login01:1156378
   ReqNodeList=(null) ExcNodeList=(null)
   NodeList=tri[0837-0838]
   BatchHost=tri0837
   NumNodes=2 NumCPUs=384 NumTasks=128 CPUs/Task=1 ReqB:S:C:T=0:0:*:*
   ReqTRES=cpu=384,mem=1534000M,node=2,billing=384
   AllocTRES=cpu=384,mem=1534000M,node=2,billing=384
   Socks/Node=* NtasksPerN:B:S:C=64:0:*:* CoreSpec=*
   MinCPUsNode=64 MinMemoryNode=0 MinTmpDiskNode=0
   Features=(null) DelayBoot=00:00:00
   OverSubscribe=NO Contiguous=0 Licenses=(null) LicensesAlloc=(null) Network=(null)
   Command=/scratch/anthonyy/reentry/orion/config/run.sh
   SubmitLine=SBATCH --comment /opt/slurm/bin/sbatch --export=NONE --get-user-env --job-name m1.5_aoa15 --nodes 2 --ntasks-per-node 64 --cpus-per-task 1 --mem 0 --time 18:00:00 --account rrg-jphickey --output orion_%j.out --error orion_%j.err --chdir /scratch/anthonyy/reentry/orion/cases/m1.5_aoa15 /scratch/anthonyy/reentry/orion/config/run.sh /scratch/anthonyy/reentry/orion/config/generated/m1.5_aoa15.cfg --export=NONE --get-user-env --job-name m1.5_aoa15 --nodes 2 --ntasks-per-node 64 --cpus-per-task 1 --mem 0 --time 18:00:00 --account rrg-jphickey --output orion_%j.out --error orion_%j.err --chdir /scratch/anthonyy/reentry/orion/cases/m1.5_aoa15 /scratch/anthonyy/reentry/orion/config/run.sh /scratch/anthonyy/reentry/orion/config/generated/m1.5_aoa15.cfg
   WorkDir=/scratch/anthonyy/reentry/orion/cases/m1.5_aoa15
   Comment=/opt/slurm/bin/sbatch --export=NONE --get-user-env --job-name m1.5_aoa15 --nodes 2 --ntasks-per-node 64 --cpus-per-task 1 --mem 0 --time 18:00:00 --account rrg-jphickey --output orion_%j.out --error orion_%j.err --chdir /scratch/anthonyy/reentry/orion/cases/m1.5_aoa15 /scratch/anthonyy/reentry/orion/config/run.sh /scratch/anthonyy/reentry/orion/config/generated/m1.5_aoa15.cfg
   StdErr=/scratch/anthonyy/reentry/orion/cases/m1.5_aoa15/orion_1228483.err
   StdIn=/dev/null
   StdOut=/scratch/anthonyy/reentry/orion/cases/m1.5_aoa15/orion_1228483.out
   TresPerTask=cpu=1

sacct -j 1228483
JobID           JobName    Account    Elapsed  MaxVMSize     MaxRSS  SystemCPU    UserCPU ExitCode 
------------ ---------- ---------- ---------- ---------- ---------- ---------- ---------- -------- 
1228483      m1.5_aoa15 rrg-jphic+   18:00:06                        00:00.149  00:00.591      0:0 
1228483.bat+      batch rrg-jphic+   18:00:08          0     23920K  00:00.149  00:00.591     0:15 
1228483.ext+     extern rrg-jphic+   18:00:06                         00:00:00   00:00:00      0:0 
1228483.0       SU2_CFD rrg-jphic+   17:59:26                         00:00:00   00:00:00      0:0 

