Nodes:  tri[0265,0271]
Tasks:  128
NPN:    64
Config: /scratch/anthonyy/reentry/orion/config/generated/m3_aoa50.cfg

-------------------------------------------------------------------------
|    ___ _   _ ___                                                      |
|   / __| | | |_  )   Release 7.5.1 "Blackbird"                         |
|   \__ \ |_| |/ /                                                      |
|   |___/\___//___|   Suite (Computational Fluid Dynamics Code)         |
|                                                                       |
-------------------------------------------------------------------------
| SU2 Project Website: https://su2code.github.io                        |
|                                                                       |
| The SU2 Project is maintained by the SU2 Foundation                   |
| (http://su2foundation.org)                                            |
-------------------------------------------------------------------------
| Copyright 2012-2023, SU2 Contributors                                 |
|                                                                       |
| SU2 is free software; you can redistribute it and/or                  |
| modify it under the terms of the GNU Lesser General Public            |
| License as published by the Free Software Foundation; either          |
| version 2.1 of the License, or (at your option) any later version.    |
|                                                                       |
| SU2 is distributed in the hope that it will be useful,                |
| but WITHOUT ANY WARRANTY; without even the implied warranty of        |
| MERCHANTABILITY or FITNESS FOR A PARTICULAR PURPOSE. See the GNU      |
| Lesser General Public License for more details.                       |
|                                                                       |
| You should have received a copy of the GNU Lesser General Public      |
| License along with SU2. If not, see <http://www.gnu.org/licenses/>.   |
-------------------------------------------------------------------------

Parsing config file for zone 0

----------------- Physical Case Definition ( Zone 0 ) -------------------
Compressible RANS equations.
Turbulence model: Spalart-Allmaras-noft2
Hybrid RANS/LES: No Hybrid RANS/LES
Mach number: 3.
Angle of attack (AoA): 50 deg, and angle of sideslip (AoS): 0 deg.
Reynolds number: 3.43114e+08. Reference length 5.
No restart solution, use the values at infinity (freestream).
Non-Dimensional simulation (V=1.0, Rho=1.0, T=1.0 at the farfield).
The reference area will be computed using y(2D) or z(3D) projection.
The semi-span will be computed using the max y(3D) value.
The reference length is 0.64607 m.
Reference origin for moment evaluation is (0.25, 0, 0).
Surface(s) where the force coefficients are evaluated: ORION_SURFACE.

Input mesh file name: ../../mesh/fine.su2

--------------- Space Numerical Integration ( Zone 0 ) ------------------
Jameson-Schmidt-Turkel scheme (2nd order in space) for the flow inviscid terms.
JST viscous coefficients (2nd & 4th): 0.5, 0.02.
The method includes a grid stretching correction (p = 0.3).
Scalar upwind solver for the turbulence model.
First order integration in space.
Average of gradients with correction (viscous flow terms).
Average of gradients with correction (viscous turbulence terms).
Gradient for upwind reconstruction: Green-Gauss.
Gradient for viscous and source terms: Green-Gauss.

--------------- Time Numerical Integration  ( Zone 0 ) ------------------
Local time stepping (steady state simulation).
Euler implicit method for the flow equations.
FGMRES is used for solving the linear system.
Using a ILU(0) preconditioning.
Convergence criteria of the linear solver: 1e-06.
Max number of linear iterations: 100.
CFL adaptation. Factor down: 0.5, factor up: 1.2,
                lower limit: 0.1, upper limit: 3,
                acceptable linear residual: 0.001.
Courant-Friedrichs-Lewy number:        1
Euler implicit time integration for the turbulence model.

------------------ Convergence Criteria  ( Zone 0 ) ---------------------
Maximum number of solver subiterations: 999999.
Begin convergence monitoring at iteration 5.
Residual minimum value: 1e-8.
Cauchy series min. value: 1e-10.
Number of Cauchy elements: 100.
Begin windowed time average at iteration 0.

-------------------- Output Information ( Zone 0 ) ----------------------
File writing frequency: 
+------------------------------------+
|                     File| Frequency|
+------------------------------------+
|                  RESTART|       150|
|                 PARAVIEW|       150|
|         SURFACE_PARAVIEW|       150|
+------------------------------------+
Writing the convergence history file every 1 inner iterations.
Writing the screen convergence history every 1 inner iterations.
The tabular file format is CSV (.csv).
Convergence history file name: history.
Forces breakdown file name: forces_breakdown.dat.
Surface file name: surface_flow.
Volume file name: flow.
Restart file name: restart_flow.

------------- Config File Boundary Information ( Zone 0 ) ---------------
+-----------------------------------------------------------------------+
|                        Marker Type|                        Marker Name|
+-----------------------------------------------------------------------+
|                          Far-field|                           FARFIELD|
+-----------------------------------------------------------------------+
|                     Heat flux wall|                      ORION_SURFACE|
+-----------------------------------------------------------------------+

-------------------- Output Preprocessing ( Zone 0 ) --------------------

WARNING: SURFACE_PRESSURE_DROP can only be computed for at least 2 surfaces (outlet, inlet, ...)

Screen output fields: INNER_ITER, WALL_TIME, RMS_DENSITY, RMS_MOMENTUM-X, RMS_MOMENTUM-Y, RMS_MOMENTUM-Z, RMS_ENERGY, RMS_NU_TILDE, DRAG
History output group(s): ITER, RMS_RES
Convergence field(s): RMS_DENSITY
Warning: No (valid) fields chosen for time convergence monitoring. Time convergence monitoring inactive.
Volume output fields: MACH, PRESSURE, TEMPERATURE, DENSITY, HEAT_FLUX, Y_PLUS, COORDINATES, SOLUTION

------------------- Geometry Preprocessing ( Zone 0 ) -------------------
Three dimensional problem.
62211324 grid points before partitioning.
190879888 volume elements before partitioning.
2 surface markers.
4104 boundary elements in index 0 (Marker = FARFIELD).
1824836 boundary elements in index 1 (Marker = ORION_SURFACE).
Executing the partitioning functions.
Building the graph adjacency structure.
Calling ParMETIS... graph partitioning complete (4959327 edge cuts).
Distributing ParMETIS coloring.
Rebalancing vertices.
Rebalancing volume element connectivity.
Rebalancing markers and surface elements.
66952290 vertices including ghost points. 
197997438 interior elements including halo cells. 
103171259 tetrahedra.
94500655 prisms.
325524 pyramids.
Establishing MPI communication patterns.
Setting point connectivity.
Renumbering points (Reverse Cuthill McKee Ordering).
Recomputing point connectivity.
Setting element connectivity.
Checking the numerical grid orientation.
All volume elements are correctly orientend.
All surface elements are correctly orientend.
Identifying edges and vertices.
Setting the control volume structure.
Volume of the computational grid: 535693.
Searching for the closest normal neighbors to the surfaces.
Storing a mapping from global to local point index.
Compute the surface curvature.
Max K: 132.896. Mean K: 3.9104. Standard deviation K: 7.49569.
Checking for periodicity.
Computing mesh quality statistics for the dual control volumes.
+--------------------------------------------------------------+
|           Mesh Quality Metric|        Minimum|        Maximum|
+--------------------------------------------------------------+
|    Orthogonality Angle (deg.)|        53.0661|             90|
|     CV Face Area Aspect Ratio|        1.01143|        75298.5|
|           CV Sub-Volume Ratio|        1.00029|        45.0258|
+--------------------------------------------------------------+
Finding max control volume width.
Communicating number of neighbors.
Reference area = 11.531 m^2.
Semi-span length = 2.49999 m.
Wetted area = 57.9072 m^2.
Area projection in the x-plane = 19.6343 m^2, y-plane = 11.531 m^2, z-plane = 11.531 m^2.
Max. coordinate in the x-direction = 2.575 m, y-direction = 2.49999 m, z-direction = 2.49999 m.
Min. coordinate in the x-direction = -0.71 m, y-direction = -2.49999 m, z-direction = -2.5 m.
Computing wall distances.

-------------------- Solver Preprocessing ( Zone 0 ) --------------------
Viscous flow: Computing pressure using the ideal gas law
based on the free-stream temperature and a density computed
from the Reynolds number.
Force coefficients computed using free-stream values.

-- Models:
+------------------------------------------------------------------------------+
|          Viscosity Model|        Conductivity Model|              Fluid Model|
+------------------------------------------------------------------------------+
|               SUTHERLAND|          CONSTANT_PRANDTL|             STANDARD_AIR|
+------------------------------------------------------------------------------+
-- Fluid properties:
+------------------------------------------------------------------------------+
|                  Name|    Dim. value|    Ref. value|      Unit|Non-dim. value|
+------------------------------------------------------------------------------+
|        Ref. Viscosity|     1.716e-05|       1227.87|   N.s/m^2|   1.39755e-08|
|      Sutherland Temp.|        273.15|        288.15|         K|      0.947944|
|     Sutherland Const.|         110.4|        288.15|         K|      0.383134|
+------------------------------------------------------------------------------+
|        Prandtl (Lam.)|             -|             -|         -|          0.72|
|       Prandtl (Turb.)|             -|             -|         -|           0.9|
+------------------------------------------------------------------------------+
|          Gas Constant|       287.058|       3616.93|  N.m/kg.K|     0.0793651|
|      Spec. Heat Ratio|             -|             -|         -|           1.4|
+------------------------------------------------------------------------------+
-- Initial and free-stream conditions:
+------------------------------------------------------------------------------+
|                  Name|    Dim. value|    Ref. value|      Unit|Non-dim. value|
+------------------------------------------------------------------------------+
|       Static Pressure|       99485.6|   1.25352e+06|        Pa|     0.0793651|
|               Density|       1.20274|       1.20274|    kg/m^3|             1|
|           Temperature|        288.15|        288.15|         K|             1|
|          Total Energy|        727899|   1.04222e+06|   m^2/s^2|      0.698413|
|            Velocity-X|       656.216|       1020.89|       m/s|      0.642788|
|            Velocity-Y|             0|       1020.89|       m/s|             0|
|            Velocity-Z|       782.048|       1020.89|       m/s|      0.766044|
|    Velocity Magnitude|       1020.89|       1020.89|       m/s|             1|
+------------------------------------------------------------------------------+
|             Viscosity|    1.7893e-05|       1227.87|   N.s/m^2|   1.45724e-08|
|          Conductivity|             -|   4.44111e+06|   W/m^2.K|             -|
|     Turb. Kin. Energy|       3908.32|   1.04222e+06|   m^2/s^2|       0.00375|
|     Spec. Dissipation|   2.62712e+07|       1020.89|       1/s|       25733.6|
+------------------------------------------------------------------------------+
|           Mach Number|             -|             -|         -|             3|
|       Reynolds Number|             -|             -|         -|   3.43114e+08|
+------------------------------------------------------------------------------+
Initialize Jacobian structure (Navier-Stokes). MG level: 0.
Initialize Jacobian structure (SA model).

------------------- Numerics Preprocessing ( Zone 0 ) -------------------

----------------- Integration Preprocessing ( Zone 0 ) ------------------

------------------- Iteration Preprocessing ( Zone 0 ) ------------------
Euler/Navier-Stokes/RANS fluid iteration.

------------------------------ Begin Solver -----------------------------

Simulation Run using the Single-zone Driver
WARNING: SU2 was not compiled for an AVX-capable architecture. Performance could be better,
         see https://su2code.github.io/docs_v7/Build-SU2-Linux-MacOS/#compiler-optimizations
+--------------------------------------------------------------------------------------------------------------------+
|  Inner_Iter|   Time(sec)|    rms[Rho]|   rms[RhoU]|   rms[RhoV]|   rms[RhoW]|   rms[RhoE]|     rms[nu]|          CD|
+--------------------------------------------------------------------------------------------------------------------+
|           0|  6.6579e+00|   -5.329754|  -16.133832|  -17.070855|  -16.060562|   -5.438899|  -12.823797|    0.675888|
|           1|  6.4065e+00|   -5.478248|   -5.692551|   -6.420464|   -5.574776|   -5.598992|  -12.776900|    0.912022|
|           2|  6.2803e+00|   -5.506474|   -5.781020|   -6.481474|   -5.640628|   -5.613307|  -12.978125|    1.143416|
|           3|  6.3222e+00|   -5.520039|   -5.841233|   -6.502439|   -5.678817|   -5.617527|  -13.087455|    1.369092|
|           4|  6.4161e+00|   -5.526736|   -5.888454|   -6.478385|   -5.710884|   -5.617577|  -13.158986|    1.592805|
|           5|  6.4813e+00|   -5.533173|   -5.919161|   -6.422690|   -5.744484|   -5.619030|  -13.208553|    1.807797|
|           6|  6.6566e+00|   -5.545250|   -5.928186|   -6.363137|   -5.780172|   -5.627420|  -13.234975|    1.997251|
|           7|  6.7848e+00|   -5.563748|   -5.912443|   -6.309842|   -5.808169|   -5.643079|  -13.244353|    2.138676|
|           8|  6.8885e+00|   -5.580338|   -5.879077|   -6.263729|   -5.812062|   -5.656669|  -13.241475|    2.204197|
|           9|  7.0161e+00|   -5.580596|   -5.842731|   -6.223562|   -5.792218|   -5.650152|  -13.234430|    2.163467|
|          10|  7.1396e+00|   -5.560073|   -5.822677|   -6.184773|   -5.756986|   -5.619555|  -13.217587|    2.019635|
|          11|  7.1944e+00|   -5.528119|   -5.820376|   -6.150280|   -5.723824|   -5.577722|  -13.201814|    1.805095|
|          12|  7.3009e+00|   -5.498334|   -5.827654|   -6.122730|   -5.702872|   -5.541238|  -13.191326|    1.585260|
|          13|  7.3443e+00|   -5.482183|   -5.829808|   -6.103554|   -5.698872|   -5.522447|  -13.180506|    1.415870|
|          14|  7.3755e+00|   -5.483693|   -5.821820|   -6.095575|   -5.711647|   -5.523661|  -13.162866|    1.319146|
|          15|  7.4059e+00|   -5.498119|   -5.816684|   -6.099119|   -5.731605|   -5.539085|  -13.143073|    1.295614|
|          16|  7.4375e+00|   -5.519929|   -5.823907|   -6.113559|   -5.750067|   -5.564420|  -13.128359|    1.335429|
|          17|  7.4818e+00|   -5.539310|   -5.840950|   -6.132486|   -5.759682|   -5.588940|  -13.119517|    1.410357|
|          18|  7.5206e+00|   -5.551460|   -5.861193|   -6.150238|   -5.763536|   -5.604962|  -13.114425|    1.492645|
|          19|  7.5531e+00|   -5.558859|   -5.883361|   -6.165753|   -5.766687|   -5.614198|  -13.109145|    1.562489|
|          20|  7.5803e+00|   -5.566134|   -5.905108|   -6.177443|   -5.770634|   -5.622440|  -13.100252|    1.610340|
|          21|  7.6043e+00|   -5.573709|   -5.920838|   -6.185021|   -5.774699|   -5.631190|  -13.087945|    1.634733|
|          22|  7.6333e+00|   -5.580052|   -5.925185|   -6.188268|   -5.776595|   -5.640006|  -13.074808|    1.641424|
|          23|  7.6561e+00|   -5.582642|   -5.920702|   -6.187109|   -5.775423|   -5.645330|  -13.065481|    1.639871|
|          24|  7.6763e+00|   -5.579926|   -5.914932|   -6.183677|   -5.772206|   -5.643191|  -13.058654|    1.638661|
|          25|  7.6932e+00|   -5.574787|   -5.915055|   -6.180694|   -5.768937|   -5.636843|  -13.052771|    1.642144|
|          26|  7.7172e+00|   -5.570891|   -5.919461|   -6.178252|   -5.766598|   -5.631233|  -13.045212|    1.650217|
|          27|  7.7366e+00|   -5.570173|   -5.923960|   -6.176839|   -5.766081|   -5.629375|  -13.034821|    1.659935|
|          28|  7.7543e+00|   -5.570978|   -5.923198|   -6.175182|   -5.766325|   -5.630205|  -13.023373|    1.667735|
|          29|  7.7710e+00|   -5.571557|   -5.917569|   -6.173000|   -5.765600|   -5.631902|  -13.014072|    1.671391|
|          30|  7.7698e+00|   -5.569980|   -5.910298|   -6.170670|   -5.763761|   -5.630976|  -13.006781|    1.670796|
|          31|  7.7706e+00|   -5.566728|   -5.907201|   -6.169381|   -5.761509|   -5.626869|  -13.002782|    1.667597|
|          32|  7.7720e+00|   -5.563230|   -5.909451|   -6.168789|   -5.759246|   -5.621716|  -12.999097|    1.664070|
|          33|  7.7839e+00|   -5.562409|   -5.913896|   -6.169162|   -5.758132|   -5.619922|  -12.991587|    1.661966|
|          34|  7.8009e+00|   -5.563430|   -5.914562|   -6.168902|   -5.757196|   -5.620825|  -12.984807|    1.661924|
|          35|  7.8192e+00|   -5.564457|   -5.909707|   -6.167805|   -5.755643|   -5.622586|  -12.977281|    1.663567|
|          36|  7.8231e+00|   -5.563340|   -5.902079|   -6.166663|   -5.752194|   -5.622188|  -12.968904|    1.665989|
|          37|  7.8229e+00|   -5.559343|   -5.893304|   -6.165703|   -5.746601|   -5.617455|  -12.961026|    1.668312|
|          38|  7.8244e+00|   -5.553796|   -5.885909|   -6.164883|   -5.739360|   -5.609776|  -12.954947|    1.670039|
|          39|  7.8356e+00|   -5.548908|   -5.879100|   -6.164538|   -5.730818|   -5.602859|  -12.944652|    1.671117|
|          40|  7.8342e+00|   -5.544549|   -5.867495|   -6.163037|   -5.720058|   -5.596917|  -12.932483|    1.671773|
|          41|  7.8311e+00|   -5.539576|   -5.848810|   -6.160347|   -5.706448|   -5.590559|  -12.919414|    1.672300|
|          42|  7.8398e+00|   -5.531965|   -5.825984|   -6.157487|   -5.689497|   -5.581483|  -12.903754|    1.672892|
|          43|  7.8479e+00|   -5.520298|   -5.799570|   -6.154247|   -5.668937|   -5.567697|  -12.885341|    1.673608|
|          44|  7.8575e+00|   -5.505703|   -5.770794|   -6.150759|   -5.645883|   -5.550173|  -12.867400|    1.674417|
|          45|  7.8548e+00|   -5.489861|   -5.741962|   -6.147200|   -5.621050|   -5.531544|  -12.849297|    1.675273|
|          46|  7.8524e+00|   -5.473384|   -5.712514|   -6.142302|   -5.594909|   -5.513169|  -12.829707|    1.676138|
|          47|  7.8599e+00|   -5.456363|   -5.681508|   -6.135619|   -5.568209|   -5.495017|  -12.809414|    1.676987|
|          48|  7.8563e+00|   -5.438375|   -5.650450|   -6.128109|   -5.541468|   -5.476569|  -12.789570|    1.677792|
|          49|  7.8655e+00|   -5.419047|   -5.620456|   -6.120403|   -5.515405|   -5.457378|  -12.769362|    1.678518|
|          50|  7.8733e+00|   -5.398844|   -5.591595|   -6.112529|   -5.490565|   -5.437689|  -12.749920|    1.679136|
|          51|  7.8720e+00|   -5.378999|   -5.564859|   -6.104898|   -5.467338|   -5.418715|  -12.732381|    1.679640|
|          52|  7.8801e+00|   -5.360199|   -5.540966|   -6.097055|   -5.445765|   -5.401370|  -12.716964|    1.680060|
|          53|  7.8845e+00|   -5.342899|   -5.519429|   -6.088571|   -5.426115|   -5.386070|  -12.702335|    1.680453|
|          54|  7.8905e+00|   -5.327177|   -5.499884|   -6.079661|   -5.408488|   -5.372709|  -12.688989|    1.680869|
|          55|  7.8975e+00|   -5.312891|   -5.482437|   -6.071172|   -5.392940|   -5.361049|  -12.677047|    1.681329|
|          56|  7.9023e+00|   -5.299704|   -5.466844|   -6.063373|   -5.379469|   -5.350602|  -12.666175|    1.681817|
|          57|  7.9087e+00|   -5.287565|   -5.453065|   -6.056254|   -5.367914|   -5.341124|  -12.656656|    1.682288|
|          58|  7.9128e+00|   -5.276690|   -5.441503|   -6.049783|   -5.358025|   -5.332782|  -12.649077|    1.682698|
|          59|  7.9167e+00|   -5.267339|   -5.432233|   -6.043731|   -5.349674|   -5.325865|  -12.643099|    1.683026|
|          60|  7.9145e+00|   -5.259725|   -5.424719|   -6.037676|   -5.342860|   -5.320629|  -12.638199|    1.683285|
|          61|  7.9213e+00|   -5.253855|   -5.418572|   -6.031962|   -5.337566|   -5.317116|  -12.634149|    1.683512|
|          62|  7.9254e+00|   -5.249248|   -5.413502|   -6.026762|   -5.333547|   -5.314823|  -12.631086|    1.683748|
|          63|  7.9297e+00|   -5.245381|   -5.409301|   -6.022151|   -5.330655|   -5.313073|  -12.628293|    1.684017|
|          64|  7.9333e+00|   -5.241919|   -5.406112|   -6.018069|   -5.328613|   -5.311354|  -12.626365|    1.684316|
|          65|  7.9374e+00|   -5.239041|   -5.404258|   -6.014564|   -5.327284|   -5.309838|  -12.625588|    1.684621|
|          66|  7.9422e+00|   -5.237114|   -5.403570|   -6.011368|   -5.326682|   -5.309047|  -12.625568|    1.684904|
|          67|  7.9456e+00|   -5.236424|   -5.403602|   -6.008252|   -5.326829|   -5.309465|  -12.626203|    1.685145|
|          68|  7.9490e+00|   -5.236802|   -5.404008|   -6.005326|   -5.327625|   -5.311053|  -12.627403|    1.685345|
|          69|  7.9531e+00|   -5.237641|   -5.404566|   -6.002516|   -5.328854|   -5.313109|  -12.628270|    1.685523|
|          70|  7.9586e+00|   -5.238323|   -5.405307|   -5.999878|   -5.330331|   -5.314742|  -12.628944|    1.685700|
|          71|  7.9622e+00|   -5.238768|   -5.406573|   -5.997696|   -5.332054|   -5.315734|  -12.630158|    1.685892|
|          72|  7.9655e+00|   -5.239339|   -5.408529|   -5.995862|   -5.334044|   -5.316551|  -12.631683|    1.686100|
|          73|  7.9701e+00|   -5.240534|   -5.410963|   -5.994133|   -5.336349|   -5.317911|  -12.633787|    1.686311|
|          74|  7.9740e+00|   -5.242614|   -5.413532|   -5.992445|   -5.338949|   -5.320359|  -12.636567|    1.686508|
|          75|  7.9760e+00|   -5.245225|   -5.415999|   -5.990647|   -5.341697|   -5.323575|  -12.639009|    1.686678|
|          76|  7.9775e+00|   -5.247715|   -5.418267|   -5.988636|   -5.344411|   -5.326655|  -12.640748|    1.686822|
|          77|  7.9802e+00|   -5.249714|   -5.420550|   -5.986833|   -5.347131|   -5.328971|  -12.642379|    1.686951|
|          78|  7.9832e+00|   -5.251306|   -5.423075|   -5.985381|   -5.349972|   -5.330551|  -12.643819|    1.687081|
|          79|  7.9848e+00|   -5.252857|   -5.425936|   -5.983993|   -5.352927|   -5.331868|  -12.645560|    1.687221|
|          80|  7.9868e+00|   -5.254865|   -5.429004|   -5.982682|   -5.355958|   -5.333706|  -12.648218|    1.687373|
|          81|  7.9898e+00|   -5.257489|   -5.432064|   -5.981379|   -5.359010|   -5.336441|  -12.650793|    1.687529|
|          82|  7.9930e+00|   -5.260354|   -5.434870|   -5.979764|   -5.361947|   -5.339619|  -12.653019|    1.687676|
|          83|  7.9961e+00|   -5.263071|   -5.437437|   -5.978111|   -5.364856|   -5.342662|  -12.654949|    1.687803|
|          84|  7.9981e+00|   -5.265312|   -5.439822|   -5.976622|   -5.367813|   -5.345048|  -12.655974|    1.687909|
|          85|  7.9997e+00|   -5.266968|   -5.442187|   -5.975146|   -5.370752|   -5.346547|  -12.656709|    1.688001|
|          86|  8.0034e+00|   -5.268400|   -5.444781|   -5.973702|   -5.373649|   -5.347653|  -12.658184|    1.688089|
|          87|  8.0067e+00|   -5.270064|   -5.447655|   -5.972405|   -5.376443|   -5.349061|  -12.659765|    1.688183|
|          88|  8.0098e+00|   -5.272160|   -5.450494|   -5.971015|   -5.379083|   -5.351103|  -12.661666|    1.688286|
|          89|  8.0131e+00|   -5.274766|   -5.453050|   -5.969596|   -5.381817|   -5.353943|  -12.663614|    1.688391|
|          90|  8.0161e+00|   -5.277356|   -5.455162|   -5.968112|   -5.384633|   -5.356916|  -12.664610|    1.688490|
|          91|  8.0186e+00|   -5.279267|   -5.456827|   -5.966450|   -5.387320|   -5.359070|  -12.664691|    1.688573|
|          92|  8.0211e+00|   -5.280344|   -5.458423|   -5.964717|   -5.389801|   -5.360098|  -12.664624|    1.688638|
|          93|  8.0229e+00|   -5.280909|   -5.460414|   -5.963144|   -5.392042|   -5.360403|  -12.664482|    1.688687|
|          94|  8.0251e+00|   -5.281549|   -5.462719|   -5.961662|   -5.394113|   -5.360758|  -12.664930|    1.688729|
|          95|  8.0286e+00|   -5.282952|   -5.464910|   -5.960369|   -5.396346|   -5.362154|  -12.666069|    1.688773|
|          96|  8.0307e+00|   -5.285048|   -5.466592|   -5.959052|   -5.398778|   -5.364673|  -12.666935|    1.688823|
|          97|  8.0326e+00|   -5.286993|   -5.467568|   -5.957370|   -5.401120|   -5.367265|  -12.666758|    1.688876|
|          98|  8.0348e+00|   -5.287990|   -5.468071|   -5.955422|   -5.403100|   -5.368760|  -12.665735|    1.688925|
|          99|  8.0361e+00|   -5.287881|   -5.468629|   -5.953534|   -5.404654|   -5.368798|  -12.663908|    1.688964|
|         100|  8.0381e+00|   -5.287154|   -5.469565|   -5.951761|   -5.405966|   -5.367910|  -12.662348|    1.688986|
|         101|  8.0406e+00|   -5.286787|   -5.470702|   -5.950259|   -5.407462|   -5.367417|  -12.661700|    1.688994|
|         102|  8.0426e+00|   -5.287262|   -5.471522|   -5.948936|   -5.409238|   -5.368137|  -12.661480|    1.688992|
|         103|  8.0437e+00|   -5.288266|   -5.471611|   -5.947367|   -5.411033|   -5.369846|  -12.660866|    1.688986|
|         104|  8.0088e+00|   -5.288936|   -5.471036|   -5.945398|   -5.412497|   -5.371430|  -12.664503|    1.688997|
|         105|  7.9783e+00|   -5.288015|   -5.470910|   -5.944451|   -5.411973|   -5.370400|  -12.663188|    1.689010|
|         106|  7.9485e+00|   -5.286909|   -5.470767|   -5.943312|   -5.411349|   -5.369161|  -12.661632|    1.689026|
|         107|  7.9190e+00|   -5.285592|   -5.470602|   -5.941951|   -5.410614|   -5.367685|  -12.659808|    1.689044|
|         108|  7.8903e+00|   -5.284041|   -5.470414|   -5.940336|   -5.409755|   -5.365948|  -12.657701|    1.689065|
|         109|  7.8620e+00|   -5.282232|   -5.470194|   -5.938436|   -5.408763|   -5.363928|  -12.655318|    1.689090|
|         110|  7.8343e+00|   -5.280163|   -5.469925|   -5.936232|   -5.407638|   -5.361634|  -12.652704|    1.689119|
|         111|  7.8104e+00|   -5.277855|   -5.469569|   -5.933724|   -5.406393|   -5.359113|  -12.649965|    1.689151|
|         112|  7.7874e+00|   -5.275390|   -5.469064|   -5.930959|   -5.405069|   -5.356503|  -12.647307|    1.689188|
|         113|  7.7682e+00|   -5.272957|   -5.468314|   -5.928061|   -5.403765|   -5.354086|  -12.645023|    1.689229|
|         114|  7.7498e+00|   -5.270903|   -5.467171|   -5.925244|   -5.402672|   -5.352349|  -12.643467|    1.689273|
|         115|  7.7318e+00|   -5.269713|   -5.465489|   -5.922782|   -5.402086|   -5.351884|  -12.642925|    1.689320|
|         116|  7.7176e+00|   -5.269886|   -5.463185|   -5.920864|   -5.402372|   -5.353170|  -12.643137|    1.689367|
|         117|  7.7065e+00|   -5.271551|   -5.460369|   -5.919362|   -5.403748|   -5.356031|  -12.642768|    1.689411|
|         118|  7.6955e+00|   -5.273829|   -5.457420|   -5.917579|   -5.405805|   -5.358961|  -12.639511|    1.689448|
|         119|  7.6883e+00|   -5.274626|   -5.454762|   -5.914140|   -5.407258|   -5.359181|  -12.631368|    1.689473|
|         120|  7.6815e+00|   -5.270741|   -5.452813|   -5.907700|   -5.405943|   -5.353243|  -12.621245|    1.689480|
|         121|  7.6780e+00|   -5.262727|   -5.451916|   -5.900051|   -5.401930|   -5.342610|  -12.618328|    1.689461|
|         122|  7.6755e+00|   -5.257011|   -5.452507|   -5.896925|   -5.399196|   -5.335861|  -12.622584|    1.689405|
|         123|  7.6767e+00|   -5.256336|   -5.454294|   -5.899643|   -5.399786|   -5.336222|  -12.625571|    1.689318|
|         124|  7.6778e+00|   -5.257713|   -5.455976|   -5.904033|   -5.401902|   -5.339377|  -12.625988|    1.689240|
|         125|  7.6784e+00|   -5.258942|   -5.456220|   -5.906996|   -5.404169|   -5.342177|  -12.626408|    1.689179|
|         126|  7.6790e+00|   -5.260696|   -5.454790|   -5.908913|   -5.407241|   -5.345379|  -12.626390|    1.689155|
|         127|  7.6798e+00|   -5.262731|   -5.451724|   -5.909574|   -5.410698|   -5.348696|  -12.625310|    1.689194|
|         128|  7.6814e+00|   -5.264650|   -5.447713|   -5.909511|   -5.413714|   -5.351985|  -12.623019|    1.689338|
|         129|  7.6827e+00|   -5.265220|   -5.443698|   -5.908780|   -5.415255|   -5.354037|  -12.618837|    1.689645|
|         130|  7.6835e+00|   -5.262976|   -5.440005|   -5.906559|   -5.414700|   -5.352742|  -12.612610|    1.690192|
|         131|  7.6843e+00|   -5.258116|   -5.436718|   -5.903070|   -5.412587|   -5.347884|  -12.606210|    1.691066|
|         132|  7.6851e+00|   -5.252993|   -5.433962|   -5.900050|   -5.410563|   -5.342538|  -12.601957|    1.692351|
|         133|  7.6862e+00|   -5.249668|   -5.431353|   -5.898566|   -5.409903|   -5.339721|  -12.598667|    1.694100|
|         134|  7.6864e+00|   -5.247781|   -5.428123|   -5.897742|   -5.410193|   -5.338955|  -12.594599|    1.696311|
|         135|  7.6869e+00|   -5.246145|   -5.424065|   -5.896751|   -5.410423|   -5.338626|  -12.589879|    1.698910|
|         136|  7.6876e+00|   -5.244118|   -5.419481|   -5.895431|   -5.410082|   -5.337997|  -12.585146|    1.701740|
|         137|  7.6887e+00|   -5.241199|   -5.414532|   -5.893509|   -5.408860|   -5.336469|  -12.579749|    1.704575|
|         138|  7.6888e+00|   -5.236758|   -5.409404|   -5.890621|   -5.406502|   -5.332920|  -12.573185|    1.707155|
|         139|  7.6860e+00|   -5.231093|   -5.404555|   -5.887324|   -5.403529|   -5.327373|  -12.566654|    1.709222|
|         140|  7.6840e+00|   -5.225694|   -5.399988|   -5.884667|   -5.401085|   -5.321912|  -12.562175|    1.710573|
|         141|  7.6813e+00|   -5.221689|   -5.395326|   -5.883208|   -5.399526|   -5.318441|  -12.558805|    1.711096|
|         142|  7.6791e+00|   -5.218520|   -5.390132|   -5.882178|   -5.398165|   -5.316300|  -12.554921|    1.710791|
|         143|  7.6767e+00|   -5.215267|   -5.384485|   -5.880863|   -5.396365|   -5.314223|  -12.550362|    1.709770|
|         144|  7.6741e+00|   -5.211420|   -5.378637|   -5.878969|   -5.393878|   -5.311520|  -12.545160|    1.708238|
|         145|  7.6724e+00|   -5.206567|   -5.372693|   -5.876266|   -5.390575|   -5.307511|  -12.539314|    1.706452|
|         146|  7.6707e+00|   -5.200759|   -5.366960|   -5.873024|   -5.386643|   -5.302005|  -12.533073|    1.704682|
|         147|  7.6684e+00|   -5.194643|   -5.361567|   -5.869830|   -5.382694|   -5.295754|  -12.527660|    1.703165|
|         148|  7.6662e+00|   -5.189245|   -5.356389|   -5.867327|   -5.379305|   -5.290340|  -12.523358|    1.702074|
|         149|  7.6639e+00|   -5.184816|   -5.351095|   -5.865511|   -5.376342|   -5.286304|  -12.519480|    1.701501|
|         150|  7.6620e+00|   -5.180991|   -5.345545|   -5.863938|   -5.373427|   -5.283184|  -12.515513|    1.701448|
+-----------------------------------------------------------------------+
|        File Writing Summary       |              Filename             |
+-----------------------------------------------------------------------+
|SU2 binary restart                 |restart_flow.dat                   |
|Paraview                           |flow.vtu                           |
|Paraview surface                   |surface_flow.vtu                   |
+-----------------------------------------------------------------------+
+--------------------------------------------------------------------------------------------------------------------+
|  Inner_Iter|   Time(sec)|    rms[Rho]|   rms[RhoU]|   rms[RhoV]|   rms[RhoW]|   rms[RhoE]|     rms[nu]|          CD|
+--------------------------------------------------------------------------------------------------------------------+
|         151|  7.7977e+00|   -5.177257|   -5.339882|   -5.862175|   -5.370265|   -5.280291|  -12.511214|    1.701847|
|         152|  7.7968e+00|   -5.173109|   -5.334296|   -5.859858|   -5.366628|   -5.276908|  -12.506307|    1.702576|
|         153|  7.7952e+00|   -5.168155|   -5.328914|   -5.856761|   -5.362278|   -5.272342|  -12.500880|    1.703492|
|         154|  7.7933e+00|   -5.162521|   -5.324027|   -5.853229|   -5.357338|   -5.266599|  -12.495542|    1.704453|
|         155|  7.7908e+00|   -5.156836|   -5.319715|   -5.849839|   -5.352344|   -5.260557|  -12.491024|    1.705341|
|         156|  7.7888e+00|   -5.151728|   -5.315804|   -5.846893|   -5.347650|   -5.255206|  -12.487158|    1.706071|
|         157|  7.7867e+00|   -5.147400|   -5.311975|   -5.844296|   -5.343280|   -5.250898|  -12.483614|    1.706595|
|         158|  7.7843e+00|   -5.143804|   -5.308093|   -5.841924|   -5.339169|   -5.247611|  -12.480282|    1.706899|
|         159|  7.7816e+00|   -5.140674|   -5.304203|   -5.839642|   -5.335183|   -5.245038|  -12.476812|    1.706990|
|         160|  7.7799e+00|   -5.137494|   -5.300395|   -5.837125|   -5.331038|   -5.242504|  -12.472892|    1.706893|
|         161|  7.7774e+00|   -5.133651|   -5.296811|   -5.833892|   -5.326261|   -5.239052|  -12.468096|    1.706636|
|         162|  7.7747e+00|   -5.128887|   -5.293650|   -5.829891|   -5.320684|   -5.234109|  -12.462888|    1.706247|
|         163|  7.7703e+00|   -5.123786|   -5.291074|   -5.825815|   -5.314806|   -5.228508|  -12.458587|    1.705752|
|         164|  7.7655e+00|   -5.119085|   -5.288995|   -5.822254|   -5.309082|   -5.223459|  -12.455059|    1.705168|
|         165|  7.7607e+00|   -5.114916|   -5.287070|   -5.818945|   -5.303561|   -5.219154|  -12.451381|    1.704512|
|         166|  7.7559e+00|   -5.111176|   -5.285041|   -5.815492|   -5.298196|   -5.215382|  -12.447621|    1.703793|
|         167|  7.7510e+00|   -5.107903|   -5.282896|   -5.812038|   -5.293012|   -5.212260|  -12.444031|    1.703022|
|         168|  7.7465e+00|   -5.105055|   -5.280743|   -5.808874|   -5.288010|   -5.209876|  -12.440552|    1.702207|
|         169|  7.7418e+00|   -5.102173|   -5.278669|   -5.805729|   -5.282828|   -5.207641|  -12.436541|    1.701355|
|         170|  7.7371e+00|   -5.098386|   -5.276724|   -5.801787|   -5.276875|   -5.204107|  -12.430967|    1.700472|
|         171|  7.7325e+00|   -5.093464|   -5.274976|   -5.796840|   -5.270109|   -5.198711|  -12.425283|    1.699565|
|         172|  7.7284e+00|   -5.088391|   -5.273669|   -5.791969|   -5.263111|   -5.193060|  -12.420884|    1.698639|
|         173|  7.7245e+00|   -5.083803|   -5.272686|   -5.787806|   -5.256204|   -5.188247|  -12.417070|    1.697699|
|         174|  7.7196e+00|   -5.079420|   -5.271624|   -5.783662|   -5.249278|   -5.183730|  -12.412511|    1.696750|
|         175|  7.7152e+00|   -5.074926|   -5.270178|   -5.778862|   -5.242223|   -5.178894|  -12.407437|    1.695795|
|         176|  7.7109e+00|   -5.070501|   -5.268343|   -5.773606|   -5.235111|   -5.174055|  -12.402719|    1.694839|
|         177|  7.7068e+00|   -5.066467|   -5.266296|   -5.768504|   -5.228067|   -5.169877|  -12.398515|    1.693883|
|         178|  7.7027e+00|   -5.062592|   -5.264165|   -5.763597|   -5.220851|   -5.166110|  -12.393973|    1.692930|
|         179|  7.6983e+00|   -5.057885|   -5.261731|   -5.757944|   -5.212915|   -5.161086|  -12.387956|    1.691979|
|         180|  7.6941e+00|   -5.051918|   -5.258835|   -5.750912|   -5.204057|   -5.153946|  -12.381241|    1.691030|
|         181|  7.6896e+00|   -5.045435|   -5.255654|   -5.743111|   -5.194576|   -5.145888|  -12.375438|    1.690081|
|         182|  7.6857e+00|   -5.039195|   -5.252298|   -5.735341|   -5.184778|   -5.138220|  -12.370430|    1.689130|
|         183|  7.6821e+00|   -5.033022|   -5.248468|   -5.727294|   -5.174613|   -5.130620|  -12.365085|    1.688178|
|         184|  7.6786e+00|   -5.026372|   -5.243734|   -5.718192|   -5.163861|   -5.122111|  -12.358776|    1.687222|
|         185|  7.6746e+00|   -5.019117|   -5.237867|   -5.707687|   -5.152436|   -5.112447|  -12.352042|    1.686264|
|         186|  7.6705e+00|   -5.011548|   -5.230935|   -5.695997|   -5.140352|   -5.102174|  -12.345556|    1.685303|
|         187|  7.6666e+00|   -5.003861|   -5.223139|   -5.683444|   -5.127597|   -5.091734|  -12.339122|    1.684341|
|         188|  7.6628e+00|   -4.995573|   -5.214378|   -5.669753|   -5.113976|   -5.080467|  -12.332108|    1.683377|
|         189|  7.6592e+00|   -4.986142|   -5.204340|   -5.654402|   -5.099345|   -5.067555|  -12.324052|    1.682410|
|         190|  7.6554e+00|   -4.975539|   -5.192898|   -5.637255|   -5.083731|   -5.052994|  -12.315589|    1.681439|
|         191|  7.6518e+00|   -4.964195|   -5.180213|   -5.618665|   -5.067294|   -5.037560|  -12.307206|    1.680461|
|         192|  7.6483e+00|   -4.952356|   -5.166408|   -5.598970|   -5.050197|   -5.021767|  -12.298853|    1.679475|
|         193|  7.6320e+00|   -4.939849|   -5.151444|   -5.578202|   -5.032517|   -5.005484|  -12.316711|    1.679446|
|         194|  7.6153e+00|   -4.939321|   -5.150978|   -5.577574|   -5.031901|   -5.004949|  -12.315907|    1.679411|
|         195|  7.6009e+00|   -4.938694|   -5.150417|   -5.576818|   -5.031166|   -5.004312|  -12.314954|    1.679369|
|         196|  7.5867e+00|   -4.937949|   -5.149744|   -5.575909|   -5.030292|   -5.003555|  -12.313825|    1.679318|
|         197|  7.5729e+00|   -4.937068|   -5.148933|   -5.574813|   -5.029251|   -5.002659|  -12.312493|    1.679256|
|         198|  7.5595e+00|   -4.936027|   -5.147958|   -5.573493|   -5.028017|   -5.001599|  -12.310926|    1.679183|
|         199|  7.5459e+00|   -4.934802|   -5.146782|   -5.571901|   -5.026553|   -5.000346|  -12.309087|    1.679094|
|         200|  7.5325e+00|   -4.933363|   -5.145364|   -5.569978|   -5.024820|   -4.998870|  -12.306938|    1.678987|
|         201|  7.5191e+00|   -4.931677|   -5.143649|   -5.567652|   -5.022772|   -4.997131|  -12.304436|    1.678857|
|         202|  7.5078e+00|   -4.929707|   -5.141572|   -5.564835|   -5.020356|   -4.995086|  -12.301532|    1.678700|
|         203|  7.4968e+00|   -4.927407|   -5.139046|   -5.561413|   -5.017504|   -4.992673|  -12.298174|    1.678509|
|         204|  7.4859e+00|   -4.924717|   -5.135962|   -5.557247|   -5.014135|   -4.989817|  -12.294300|    1.678277|
|         205|  7.4771e+00|   -4.921556|   -5.132178|   -5.552156|   -5.010143|   -4.986406|  -12.289834|    1.677995|
|         206|  7.4685e+00|   -4.917806|   -5.127512|   -5.545917|   -5.005382|   -4.982283|  -12.284676|    1.677649|
|         207|  7.4598e+00|   -4.913279|   -5.121726|   -5.538243|   -4.999637|   -4.977210|  -12.278682|    1.677224|
|         208|  7.4530e+00|   -4.907684|   -5.114520|   -5.528777|   -4.992598|   -4.970845|  -12.271629|    1.676704|
|         209|  7.4462e+00|   -4.900582|   -5.105511|   -5.517081|   -4.983810|   -4.962698|  -12.263171|    1.676067|
|         210|  7.4415e+00|   -4.891326|   -5.094204|   -5.502601|   -4.972655|   -4.952088|  -12.252874|    1.675289|
|         211|  7.4373e+00|   -4.879050|   -5.079972|   -5.484667|   -4.958355|   -4.938146|  -12.240226|    1.674346|
|         212|  7.4348e+00|   -4.862717|   -5.062050|   -5.462501|   -4.940054|   -4.919896|  -12.226639|    1.673281|
|         213|  7.4326e+00|   -4.842691|   -5.041136|   -5.437109|   -4.918523|   -4.898121|  -12.214771|    1.672225|
|         214|  7.4303e+00|   -4.821629|   -5.020081|   -5.411897|   -4.896836|   -4.876160|  -12.202220|    1.671170|
|         215|  7.4278e+00|   -4.800328|   -4.999218|   -5.387064|   -4.875597|   -4.854905|  -12.189439|    1.670109|
|         216|  7.4252e+00|   -4.779280|   -4.978811|   -5.362758|   -4.855201|   -4.834907|  -12.176373|    1.669032|
|         217|  7.4227e+00|   -4.758552|   -4.959000|   -5.339051|   -4.835796|   -4.816227|  -12.162715|    1.667931|
|         218|  7.4199e+00|   -4.738017|   -4.939819|   -5.316015|   -4.817414|   -4.798679|  -12.148181|    1.666800|
|         219|  7.4174e+00|   -4.717507|   -4.921268|   -5.293742|   -4.800003|   -4.782036|  -12.132669|    1.665632|
|         220|  7.4154e+00|   -4.696919|   -4.903355|   -5.272337|   -4.783464|   -4.766150|  -12.116334|    1.664426|
|         221|  7.4131e+00|   -4.676263|   -4.886107|   -5.251908|   -4.767712|   -4.751007|  -12.099467|    1.663181|
|         222|  7.4110e+00|   -4.655604|   -4.869563|   -5.232552|   -4.752663|   -4.736634|  -12.082282|    1.661897|
|         223|  7.4097e+00|   -4.635010|   -4.853731|   -5.214317|   -4.738252|   -4.723012|  -12.064922|    1.660575|
|         224|  7.4077e+00|   -4.614539|   -4.838593|   -5.197206|   -4.724439|   -4.710063|  -12.047479|    1.659216|
|         225|  7.4057e+00|   -4.594279|   -4.824133|   -5.181207|   -4.711220|   -4.697717|  -12.030079|    1.657820|
|         226|  7.3923e+00|   -4.574346|   -4.810349|   -5.166308|   -4.698604|   -4.685939|  -12.073254|    1.657778|
|         227|  7.3792e+00|   -4.573633|   -4.809973|   -5.166042|   -4.698214|   -4.685600|  -12.071896|    1.657727|
|         228|  7.3681e+00|   -4.572785|   -4.809525|   -5.165718|   -4.697752|   -4.685200|  -12.070276|    1.657666|
|         229|  7.3569e+00|   -4.571779|   -4.808993|   -5.165325|   -4.697206|   -4.684729|  -12.068346|    1.657593|
|         230|  7.3460e+00|   -4.570588|   -4.808360|   -5.164845|   -4.696563|   -4.684177|  -12.066051|    1.657505|
|         231|  7.3352e+00|   -4.569180|   -4.807610|   -5.164259|   -4.695807|   -4.683533|  -12.063325|    1.657398|
|         232|  7.3241e+00|   -4.567521|   -4.806722|   -5.163541|   -4.694924|   -4.682786|  -12.060097|    1.657270|
|         233|  7.3135e+00|   -4.565573|   -4.805674|   -5.162658|   -4.693895|   -4.681924|  -12.056284|    1.657114|
|         234|  7.3046e+00|   -4.563292|   -4.804438|   -5.161569|   -4.692702|   -4.680937|  -12.051793|    1.656925|
|         235|  7.2958e+00|   -4.560632|   -4.802984|   -5.160220|   -4.691326|   -4.679814|  -12.046521|    1.656697|
|         236|  7.2873e+00|   -4.557542|   -4.801273|   -5.158546|   -4.689747|   -4.678545|  -12.040357|    1.656419|
|         237|  7.2787e+00|   -4.553960|   -4.799258|   -5.156461|   -4.687939|   -4.677115|  -12.033173|    1.656080|
|         238|  7.2719e+00|   -4.549817|   -4.796877|   -5.153863|   -4.685867|   -4.675501|  -12.024822|    1.655665|
|         239|  7.2649e+00|   -4.545018|   -4.794044|   -5.150625|   -4.683474|   -4.673657|  -12.015137|    1.655157|
|         240|  7.2584e+00|   -4.539435|   -4.790634|   -5.146603|   -4.680670|   -4.671496|  -12.003914|    1.654533|
|         241|  7.2537e+00|   -4.532880|   -4.786467|   -5.141641|   -4.677298|   -4.668857|  -11.990909|    1.653763|
|         242|  7.2489e+00|   -4.525076|   -4.781290|   -5.135587|   -4.673109|   -4.665469|  -11.975844|    1.652812|
|         243|  7.2457e+00|   -4.515641|   -4.774772|   -5.128316|   -4.667742|   -4.660917|  -11.958458|    1.651635|
|         244|  7.2446e+00|   -4.504084|   -4.766530|   -5.119765|   -4.660727|   -4.654640|  -11.938563|    1.650180|
|         245|  7.2431e+00|   -4.489872|   -4.756207|   -5.109962|   -4.651565|   -4.646003|  -11.920070|    1.648498|
|         246|  7.2416e+00|   -4.473669|   -4.744495|   -5.099855|   -4.640700|   -4.635315|  -11.908127|    1.646790|
|         247|  7.2399e+00|   -4.457757|   -4.733336|   -5.091096|   -4.629899|   -4.624388|  -11.896524|    1.645059|
|         248|  7.2385e+00|   -4.442647|   -4.723023|   -5.083497|   -4.619690|   -4.613880|  -11.885474|    1.643307|
|         249|  7.2371e+00|   -4.428702|   -4.713699|   -5.076842|   -4.610441|   -4.604271|  -11.875055|    1.641533|
|         250|  7.2359e+00|   -4.416125|   -4.705390|   -5.070898|   -4.602339|   -4.595826|  -11.865228|    1.639740|
|         251|  7.2348e+00|   -4.404968|   -4.698037|   -5.065446|   -4.595400|   -4.588585|  -11.855898|    1.637923|
|         252|  7.2335e+00|   -4.395166|   -4.691524|   -5.060280|   -4.589505|   -4.582405|  -11.846988|    1.636079|
|         253|  7.2320e+00|   -4.386586|   -4.685706|   -5.055229|   -4.584442|   -4.577029|  -11.838474|    1.634199|
|         254|  7.2307e+00|   -4.379068|   -4.680430|   -5.050171|   -4.579961|   -4.572162|  -11.830385|    1.632270|
|         255|  7.2294e+00|   -4.372452|   -4.675547|   -5.045018|   -4.575801|   -4.567520|  -11.822794|    1.630277|
|         256|  7.2280e+00|   -4.366608|   -4.670918|   -5.039725|   -4.571741|   -4.562873|  -11.815788|    1.628205|
|         257|  7.2266e+00|   -4.361442|   -4.666428|   -5.034267|   -4.567617|   -4.558071|  -11.809451|    1.626036|
|         258|  7.2257e+00|   -4.356897|   -4.661986|   -5.028641|   -4.563333|   -4.553045|  -11.803838|    1.623755|
|         259|  7.2247e+00|   -4.352939|   -4.657526|   -5.022854|   -4.558850|   -4.547778|  -11.798960|    1.621350|
|         260|  7.2238e+00|   -4.349540|   -4.653025|   -5.016922|   -4.554183|   -4.542305|  -11.794803|    1.618812|
|         261|  7.2227e+00|   -4.346681|   -4.648473|   -5.010869|   -4.549358|   -4.536654|  -11.791315|    1.616136|
|         262|  7.2219e+00|   -4.344314|   -4.643879|   -5.004732|   -4.544416|   -4.530858|  -11.788439|    1.613323|
|         263|  7.2206e+00|   -4.342390|   -4.639264|   -4.998559|   -4.539410|   -4.524962|  -11.786145|    1.610379|
|         264|  7.2194e+00|   -4.340842|   -4.634640|   -4.992382|   -4.534372|   -4.518986|  -11.784383|    1.607315|
|         265|  7.2179e+00|   -4.339619|   -4.630024|   -4.986272|   -4.529358|   -4.512992|  -11.783126|    1.604146|
|         266|  7.2168e+00|   -4.338686|   -4.625444|   -4.980302|   -4.524414|   -4.507047|  -11.782328|    1.600892|
|         267|  7.2156e+00|   -4.337982|   -4.620944|   -4.974553|   -4.519576|   -4.501222|  -11.781910|    1.597573|
|         268|  7.2147e+00|   -4.337441|   -4.616577|   -4.969096|   -4.514864|   -4.495570|  -11.781802|    1.594214|
|         269|  7.2138e+00|   -4.336998|   -4.612398|   -4.963976|   -4.510289|   -4.490103|  -11.781949|    1.590839|
|         270|  7.2126e+00|   -4.336589|   -4.608427|   -4.959211|   -4.505855|   -4.484811|  -11.782296|    1.587474|
|         271|  7.2114e+00|   -4.336141|   -4.604677|   -4.954802|   -4.501571|   -4.479689|  -11.782837|    1.584141|
|         272|  7.2102e+00|   -4.335640|   -4.601167|   -4.950772|   -4.497477|   -4.474784|  -11.783571|    1.580863|
|         273|  7.2096e+00|   -4.335075|   -4.597887|   -4.947128|   -4.493611|   -4.470126|  -11.784453|    1.577659|
|         274|  7.2086e+00|   -4.334496|   -4.594879|   -4.943921|   -4.490035|   -4.465821|  -11.785486|    1.574545|
|         275|  7.2074e+00|   -4.333896|   -4.592143|   -4.941152|   -4.486774|   -4.461900|  -11.786573|    1.571537|
|         276|  7.2062e+00|   -4.333296|   -4.589726|   -4.938849|   -4.483847|   -4.458415|  -11.787641|    1.568645|
|         277|  7.2050e+00|   -4.332732|   -4.587688|   -4.937039|   -4.481266|   -4.455394|  -11.788687|    1.565879|
|         278|  7.2039e+00|   -4.332177|   -4.586046|   -4.935729|   -4.479003|   -4.452808|  -11.789719|    1.563243|
|         279|  7.2031e+00|   -4.331606|   -4.584780|   -4.934876|   -4.477032|   -4.450585|  -11.790725|    1.560739|
|         280|  7.2024e+00|   -4.331009|   -4.583883|   -4.934438|   -4.475343|   -4.448675|  -11.791709|    1.558365|
|         281|  7.2013e+00|   -4.330389|   -4.583339|   -4.934378|   -4.473927|   -4.447054|  -11.792688|    1.556116|
|         282|  7.2006e+00|   -4.329787|   -4.583125|   -4.934678|   -4.472795|   -4.445725|  -11.793682|    1.553980|
|         283|  7.1997e+00|   -4.329260|   -4.583223|   -4.935321|   -4.471965|   -4.444726|  -11.794716|    1.551944|
|         284|  7.1988e+00|   -4.328878|   -4.583624|   -4.936297|   -4.471454|   -4.444105|  -11.795733|    1.549989|
|         285|  7.1978e+00|   -4.328671|   -4.584331|   -4.937584|   -4.471266|   -4.443879|  -11.796678|    1.548093|
|         286|  7.1969e+00|   -4.328661|   -4.585389|   -4.939157|   -4.471388|   -4.444045|  -11.797487|    1.546230|
|         287|  7.1959e+00|   -4.328858|   -4.586851|   -4.940975|   -4.471800|   -4.444539|  -11.798164|    1.544376|
|         288|  7.1954e+00|   -4.329215|   -4.588691|   -4.943015|   -4.472459|   -4.445275|  -11.798763|    1.542504|
|         289|  7.1944e+00|   -4.329720|   -4.590846|   -4.945243|   -4.473342|   -4.446198|  -11.799332|    1.540590|
|         290|  7.1934e+00|   -4.330396|   -4.593263|   -4.947610|   -4.474443|   -4.447296|  -11.799898|    1.538612|
|         291|  7.1925e+00|   -4.331290|   -4.595905|   -4.950122|   -4.475768|   -4.448608|  -11.800447|    1.536551|
|         292|  7.1918e+00|   -4.332476|   -4.598829|   -4.952780|   -4.477326|   -4.450196|  -11.800976|    1.534393|
|         293|  7.1911e+00|   -4.333963|   -4.602071|   -4.955575|   -4.479102|   -4.452074|  -11.801402|    1.532128|
|         294|  7.1904e+00|   -4.335665|   -4.605586|   -4.958451|   -4.481026|   -4.454134|  -11.801712|    1.529751|
|         295|  7.1894e+00|   -4.337541|   -4.609355|   -4.961383|   -4.483067|   -4.456302|  -11.801923|    1.527259|
|         296|  7.1884e+00|   -4.339576|   -4.613343|   -4.964348|   -4.485213|   -4.458537|  -11.802074|    1.524656|
|         297|  7.1874e+00|   -4.341763|   -4.617507|   -4.967321|   -4.487466|   -4.460817|  -11.802169|    1.521944|
|         298|  7.1865e+00|   -4.344057|   -4.621809|   -4.970260|   -4.489820|   -4.463126|  -11.802268|    1.519131|
|         299|  7.1858e+00|   -4.346552|   -4.626282|   -4.973158|   -4.492345|   -4.465543|  -11.802360|    1.516225|
|         300|  7.1851e+00|   -4.349289|   -4.630938|   -4.976023|   -4.495036|   -4.468098|  -11.802397|    1.513234|
+-----------------------------------------------------------------------+
|        File Writing Summary       |              Filename             |
+-----------------------------------------------------------------------+
|SU2 binary restart                 |restart_flow.dat                   |
|Paraview                           |flow.vtu                           |
|Paraview surface                   |surface_flow.vtu                   |
+-----------------------------------------------------------------------+
+--------------------------------------------------------------------------------------------------------------------+
|  Inner_Iter|   Time(sec)|    rms[Rho]|   rms[RhoU]|   rms[RhoV]|   rms[RhoW]|   rms[RhoE]|     rms[nu]|          CD|
+--------------------------------------------------------------------------------------------------------------------+
|         301|  7.2542e+00|   -4.352259|   -4.635773|   -4.978854|   -4.497865|   -4.470798|  -11.802391|    1.510165|
|         302|  7.2552e+00|   -4.355459|   -4.640759|   -4.981671|   -4.500812|   -4.473631|  -11.802297|    1.507027|
|         303|  7.2548e+00|   -4.358855|   -4.645862|   -4.984450|   -4.503836|   -4.476560|  -11.802105|    1.503828|
|         304|  7.2545e+00|   -4.362432|   -4.651074|   -4.987189|   -4.506913|   -4.479566|  -11.801811|    1.500574|
|         305|  7.2537e+00|   -4.366153|   -4.656395|   -4.989891|   -4.510022|   -4.482617|  -11.801411|    1.497272|
|         306|  7.2528e+00|   -4.369988|   -4.661809|   -4.992537|   -4.513144|   -4.485681|  -11.800910|    1.493928|
|         307|  7.2520e+00|   -4.373936|   -4.667320|   -4.995124|   -4.516311|   -4.488791|  -11.800301|    1.490545|
|         308|  7.2511e+00|   -4.377999|   -4.672926|   -4.997664|   -4.519530|   -4.491968|  -11.799575|    1.487127|
|         309|  7.2502e+00|   -4.382230|   -4.678682|   -5.000196|   -4.522855|   -4.495274|  -11.798728|    1.483677|
|         310|  7.2494e+00|   -4.386546|   -4.684524|   -5.002692|   -4.526244|   -4.498661|  -11.797754|    1.480196|
|         311|  7.2491e+00|   -4.390823|   -4.690377|   -5.005187|   -4.529612|   -4.502049|  -11.796644|    1.476684|
|         312|  7.2485e+00|   -4.395138|   -4.696298|   -5.007663|   -4.532942|   -4.505439|  -11.795427|    1.473141|
|         313|  7.2479e+00|   -4.399474|   -4.702268|   -5.010122|   -4.536216|   -4.508805|  -11.794144|    1.469564|
|         314|  7.2469e+00|   -4.403821|   -4.708255|   -5.012569|   -4.539432|   -4.512142|  -11.792743|    1.465952|
|         315|  7.2461e+00|   -4.408134|   -4.714183|   -5.014976|   -4.542566|   -4.515422|  -11.791202|    1.462301|
|         316|  7.2454e+00|   -4.412406|   -4.720013|   -5.017344|   -4.545622|   -4.518662|  -11.789478|    1.458610|
|         317|  7.2448e+00|   -4.416629|   -4.725732|   -5.019661|   -4.548598|   -4.521865|  -11.787536|    1.454876|
|         318|  7.2441e+00|   -4.420766|   -4.731359|   -5.021930|   -4.551503|   -4.525045|  -11.785362|    1.451095|
|         319|  7.2435e+00|   -4.424783|   -4.736915|   -5.024152|   -4.554326|   -4.528190|  -11.782961|    1.447268|
|         320|  7.2429e+00|   -4.428722|   -4.742430|   -5.026324|   -4.557043|   -4.531295|  -11.780388|    1.443391|
|         321|  7.2422e+00|   -4.432550|   -4.747835|   -5.028425|   -4.559640|   -4.534332|  -11.777666|    1.439465|
|         322|  7.2417e+00|   -4.436261|   -4.753064|   -5.030446|   -4.562116|   -4.537297|  -11.774823|    1.435490|
|         323|  7.2410e+00|   -4.439865|   -4.758061|   -5.032397|   -4.564483|   -4.540213|  -11.771877|    1.431464|
|         324|  7.2402e+00|   -4.443348|   -4.762788|   -5.034275|   -4.566740|   -4.543085|  -11.768759|    1.427390|
|         325|  7.2394e+00|   -4.446692|   -4.767211|   -5.036079|   -4.568869|   -4.545899|  -11.765413|    1.423267|
|         326|  7.2385e+00|   -4.449871|   -4.771321|   -5.037822|   -4.570840|   -4.548640|  -11.761795|    1.419096|
|         327|  7.2379e+00|   -4.452851|   -4.775096|   -5.039507|   -4.572624|   -4.551282|  -11.757926|    1.414877|
|         328|  7.2372e+00|   -4.455600|   -4.778510|   -5.041111|   -4.574198|   -4.553787|  -11.753811|    1.410613|
|         329|  7.2365e+00|   -4.458094|   -4.781533|   -5.042609|   -4.575554|   -4.556137|  -11.749482|    1.406302|
|         330|  7.2360e+00|   -4.460319|   -4.784116|   -5.043983|   -4.576689|   -4.558312|  -11.744988|    1.401946|
|         331|  7.2352e+00|   -4.462275|   -4.786255|   -5.045226|   -4.577603|   -4.560313|  -11.740312|    1.397546|
|         332|  7.2345e+00|   -4.463997|   -4.787988|   -5.046352|   -4.578333|   -4.562187|  -11.735431|    1.393102|
|         333|  7.2339e+00|   -4.465504|   -4.789362|   -5.047333|   -4.578900|   -4.563958|  -11.730335|    1.388615|
|         334|  7.2332e+00|   -4.466809|   -4.790413|   -5.048176|   -4.579312|   -4.565629|  -11.725009|    1.384087|
|         335|  7.2327e+00|   -4.467909|   -4.791172|   -5.048861|   -4.579569|   -4.567185|  -11.719445|    1.379518|
|         336|  7.2320e+00|   -4.468824|   -4.791658|   -5.049387|   -4.579696|   -4.568645|  -11.713653|    1.374910|
|         337|  7.2314e+00|   -4.469566|   -4.791901|   -5.049743|   -4.579714|   -4.570020|  -11.707658|    1.370265|
|         338|  7.2307e+00|   -4.470151|   -4.791916|   -5.049916|   -4.579638|   -4.571315|  -11.701460|    1.365585|
|         339|  7.2301e+00|   -4.470586|   -4.791712|   -5.049911|   -4.579470|   -4.572530|  -11.695075|    1.360871|
|         340|  7.2294e+00|   -4.470903|   -4.791336|   -5.049729|   -4.579228|   -4.573695|  -11.688487|    1.356126|
|         341|  7.2287e+00|   -4.471109|   -4.790804|   -5.049387|   -4.578917|   -4.574814|  -11.681692|    1.351352|
|         342|  7.2283e+00|   -4.471188|   -4.790106|   -5.048893|   -4.578518|   -4.575859|  -11.674648|    1.346551|
|         343|  7.2279e+00|   -4.471134|   -4.789230|   -5.048267|   -4.578025|   -4.576819|  -11.667349|    1.341726|
|         344|  7.2274e+00|   -4.470916|   -4.788145|   -5.047521|   -4.577403|   -4.577650|  -11.659808|    1.336879|
|         345|  7.2268e+00|   -4.470515|   -4.786814|   -5.046660|   -4.576626|   -4.578320|  -11.652030|    1.332013|
|         346|  7.2265e+00|   -4.469927|   -4.785186|   -5.045691|   -4.575692|   -4.578825|  -11.644007|    1.327132|
|         347|  7.2260e+00|   -4.469128|   -4.783170|   -5.044576|   -4.574569|   -4.579127|  -11.635728|    1.322238|
|         348|  7.2256e+00|   -4.468106|   -4.780683|   -5.043310|   -4.573240|   -4.579208|  -11.627206|    1.317335|
|         349|  7.2253e+00|   -4.466817|   -4.777646|   -5.041856|   -4.571649|   -4.579016|  -11.618437|    1.312426|
|         350|  7.2249e+00|   -4.465217|   -4.774024|   -5.040190|   -4.569752|   -4.578511|  -11.609424|    1.307513|
|         351|  7.2244e+00|   -4.463241|   -4.769742|   -5.038278|   -4.567470|   -4.577616|  -11.600183|    1.302602|
|         352|  7.2236e+00|   -4.460842|   -4.764741|   -5.036099|   -4.564749|   -4.576271|  -11.590721|    1.297696|
|         353|  7.2231e+00|   -4.457962|   -4.758949|   -5.033639|   -4.561520|   -4.574408|  -11.581054|    1.292798|
|         354|  7.2227e+00|   -4.454536|   -4.752237|   -5.030868|   -4.557705|   -4.571926|  -11.571206|    1.287912|
|         355|  7.2220e+00|   -4.450515|   -4.744547|   -5.027765|   -4.553249|   -4.568755|  -11.561193|    1.283044|
|         356|  7.2218e+00|   -4.445863|   -4.735874|   -5.024344|   -4.548110|   -4.564850|  -11.551042|    1.278196|
|         357|  7.2213e+00|   -4.440556|   -4.726225|   -5.020609|   -4.542264|   -4.560177|  -11.540780|    1.273373|
|         358|  7.2207e+00|   -4.434593|   -4.715723|   -5.016573|   -4.535735|   -4.554751|  -11.530446|    1.268579|
|         359|  7.2204e+00|   -4.428010|   -4.704475|   -5.012255|   -4.528564|   -4.548617|  -11.520037|    1.263819|
|         360|  7.2197e+00|   -4.420843|   -4.692590|   -5.007647|   -4.520799|   -4.541813|  -11.509554|    1.259097|
|         361|  7.2193e+00|   -4.413140|   -4.680228|   -5.002730|   -4.512501|   -4.534397|  -11.499007|    1.254416|
|         362|  7.2190e+00|   -4.405032|   -4.667720|   -4.997551|   -4.503871|   -4.526569|  -11.488439|    1.249781|
|         363|  7.2185e+00|   -4.396640|   -4.655360|   -4.992157|   -4.495083|   -4.518505|  -11.477893|    1.245197|
|         364|  7.2166e+00|   -4.388130|   -4.643220|   -4.986556|   -4.486274|   -4.510348|  -11.467386|    1.240667|
|         365|  7.2150e+00|   -4.379624|   -4.631423|   -4.980803|   -4.477556|   -4.502223|  -11.456927|    1.236194|
|         366|  7.2135e+00|   -4.371293|   -4.620085|   -4.974956|   -4.469096|   -4.494289|  -11.446533|    1.231783|
|         367|  7.2118e+00|   -4.363239|   -4.609419|   -4.969109|   -4.460978|   -4.486663|  -11.436208|    1.227437|
|         368|  7.2102e+00|   -4.355571|   -4.599513|   -4.963358|   -4.453284|   -4.479434|  -11.425976|    1.223158|
|         369|  7.2086e+00|   -4.348441|   -4.590450|   -4.957887|   -4.446151|   -4.472741|  -11.415861|    1.218952|
|         370|  7.2069e+00|   -4.341935|   -4.582255|   -4.952702|   -4.439640|   -4.466632|  -11.405883|    1.214819|
|         371|  7.2055e+00|   -4.336118|   -4.574992|   -4.947858|   -4.433803|   -4.461165|  -11.396075|    1.210763|
|         372|  7.2041e+00|   -4.331049|   -4.568954|   -4.943521|   -4.428695|   -4.456435|  -11.386463|    1.206786|
|         373|  7.2024e+00|   -4.326764|   -4.564055|   -4.939742|   -4.424349|   -4.452451|  -11.377075|    1.202890|
|         374|  7.2010e+00|   -4.323267|   -4.560194|   -4.936555|   -4.420764|   -4.449187|  -11.367950|    1.199078|
|         375|  7.1994e+00|   -4.320547|   -4.557413|   -4.934098|   -4.417912|   -4.446642|  -11.359134|    1.195350|
|         376|  7.1977e+00|   -4.318567|   -4.555628|   -4.932333|   -4.415759|   -4.444768|  -11.350669|    1.191709|
|         377|  7.1961e+00|   -4.317309|   -4.554900|   -4.931284|   -4.414287|   -4.443568|  -11.342601|    1.188154|
|         378|  7.1948e+00|   -4.316740|   -4.555250|   -4.930978|   -4.413461|   -4.443017|  -11.334965|    1.184688|
|         379|  7.1935e+00|   -4.316825|   -4.556636|   -4.931428|   -4.413255|   -4.443078|  -11.327780|    1.181311|
|         380|  7.1922e+00|   -4.317495|   -4.558961|   -4.932598|   -4.413598|   -4.443696|  -11.321062|    1.178022|
|         381|  7.1905e+00|   -4.318715|   -4.562201|   -4.934478|   -4.414461|   -4.444850|  -11.314819|    1.174824|
|         382|  7.1889e+00|   -4.320433|   -4.566320|   -4.937040|   -4.415802|   -4.446503|  -11.309057|    1.171715|
|         383|  7.1874e+00|   -4.322617|   -4.571351|   -4.940238|   -4.417604|   -4.448662|  -11.303763|    1.168696|
|         384|  7.1860e+00|   -4.325182|   -4.577121|   -4.944024|   -4.419775|   -4.451220|  -11.298913|    1.165766|
|         385|  7.1846e+00|   -4.328063|   -4.583573|   -4.948282|   -4.422257|   -4.454128|  -11.294484|    1.162926|
|         386|  7.1831e+00|   -4.331202|   -4.590651|   -4.952913|   -4.425003|   -4.457344|  -11.290450|    1.160174|
|         387|  7.1817e+00|   -4.334539|   -4.598302|   -4.957813|   -4.427961|   -4.460822|  -11.286781|    1.157512|
|         388|  7.1801e+00|   -4.338027|   -4.606473|   -4.962868|   -4.431088|   -4.464532|  -11.283436|    1.154938|
|         389|  7.1785e+00|   -4.341595|   -4.615050|   -4.967956|   -4.434326|   -4.468411|  -11.280378|    1.152451|
|         390|  7.1771e+00|   -4.345174|   -4.623926|   -4.972960|   -4.437613|   -4.472398|  -11.277566|    1.150052|
|         391|  7.1758e+00|   -4.348689|   -4.632984|   -4.977755|   -4.440878|   -4.476422|  -11.274953|    1.147740|
|         392|  7.1745e+00|   -4.352073|   -4.642101|   -4.982237|   -4.444060|   -4.480412|  -11.272456|    1.145514|
|         393|  7.1732e+00|   -4.355267|   -4.651163|   -4.986301|   -4.447106|   -4.484310|  -11.270016|    1.143373|
|         394|  7.1720e+00|   -4.358219|   -4.660073|   -4.989864|   -4.449965|   -4.488047|  -11.267553|    1.141318|
|         395|  7.1706e+00|   -4.360859|   -4.668672|   -4.992863|   -4.452564|   -4.491546|  -11.265018|    1.139347|
|         396|  7.1692e+00|   -4.363134|   -4.676805|   -4.995255|   -4.454855|   -4.494747|  -11.262319|    1.137460|
|         397|  7.1679e+00|   -4.365004|   -4.684343|   -4.997031|   -4.456791|   -4.497590|  -11.259348|    1.135655|
|         398|  7.1665e+00|   -4.366446|   -4.691175|   -4.998208|   -4.458341|   -4.500034|  -11.256052|    1.133933|
|         399|  7.1651e+00|   -4.367453|   -4.697210|   -4.998826|   -4.459485|   -4.502045|  -11.252385|    1.132292|
|         400|  7.1638e+00|   -4.368023|   -4.702371|   -4.998934|   -4.460210|   -4.503601|  -11.248431|    1.130732|
|         401|  7.1627e+00|   -4.368159|   -4.706612|   -4.998593|   -4.460505|   -4.504683|  -11.244164|    1.129251|
|         402|  7.1614e+00|   -4.367890|   -4.709929|   -4.997878|   -4.460390|   -4.505306|  -11.239501|    1.127848|
|         403|  7.1600e+00|   -4.367235|   -4.712345|   -4.996853|   -4.459869|   -4.505471|  -11.234379|    1.126523|
|         404|  7.1584e+00|   -4.366231|   -4.713912|   -4.995584|   -4.458967|   -4.505203|  -11.228778|    1.125274|
|         405|  7.1570e+00|   -4.364928|   -4.714708|   -4.994126|   -4.457732|   -4.504546|  -11.222786|    1.124100|
|         406|  7.1558e+00|   -4.363347|   -4.714808|   -4.992523|   -4.456172|   -4.503514|  -11.216409|    1.123000|
|         407|  7.1545e+00|   -4.361520|   -4.714303|   -4.990808|   -4.454319|   -4.502138|  -11.209619|    1.121972|
|         408|  7.1532e+00|   -4.359500|   -4.713287|   -4.989017|   -4.452222|   -4.500470|  -11.202274|    1.121015|
|         409|  7.1518e+00|   -4.357323|   -4.711849|   -4.987173|   -4.449925|   -4.498561|  -11.194297|    1.120128|
|         410|  7.1513e+00|   -4.355027|   -4.710063|   -4.985302|   -4.447474|   -4.496461|  -11.185739|    1.119309|
|         411|  7.1510e+00|   -4.352664|   -4.708007|   -4.983428|   -4.444930|   -4.494234|  -11.176734|    1.118555|
|         412|  7.1505e+00|   -4.350238|   -4.705732|   -4.981558|   -4.442303|   -4.491898|  -11.167364|    1.117867|
|         413|  7.1501e+00|   -4.347761|   -4.703242|   -4.979703|   -4.439611|   -4.489471|  -11.157808|    1.117241|
|         414|  7.1498e+00|   -4.345246|   -4.700614|   -4.977867|   -4.436872|   -4.486981|  -11.148175|    1.116676|
|         415|  7.1495e+00|   -4.342710|   -4.697891|   -4.976059|   -4.434113|   -4.484462|  -11.138539|    1.116171|
|         416|  7.1491e+00|   -4.340153|   -4.695099|   -4.974268|   -4.431336|   -4.481919|  -11.128986|    1.115724|
|         417|  7.1486e+00|   -4.337573|   -4.692248|   -4.972485|   -4.428546|   -4.479358|  -11.119564|    1.115332|
|         418|  7.1483e+00|   -4.334966|   -4.689338|   -4.970694|   -4.425746|   -4.476783|  -11.110256|    1.114995|
|         419|  7.1479e+00|   -4.332327|   -4.686366|   -4.968883|   -4.422936|   -4.474196|  -11.101047|    1.114711|
|         420|  7.1474e+00|   -4.329682|   -4.683349|   -4.967040|   -4.420151|   -4.471631|  -11.091902|    1.114478|
|         421|  7.1471e+00|   -4.327010|   -4.680276|   -4.965148|   -4.417364|   -4.469062|  -11.082817|    1.114295|
|         422|  7.1465e+00|   -4.324284|   -4.677121|   -4.963186|   -4.414550|   -4.466465|  -11.073826|    1.114161|
|         423|  7.1462e+00|   -4.321508|   -4.673885|   -4.961151|   -4.411717|   -4.463851|  -11.064960|    1.114073|
|         424|  7.1459e+00|   -4.318687|   -4.670565|   -4.959035|   -4.408873|   -4.461228|  -11.056254|    1.114032|
|         425|  7.1454e+00|   -4.315818|   -4.667160|   -4.956839|   -4.406017|   -4.458598|  -11.047726|    1.114036|
|         426|  7.1451e+00|   -4.312889|   -4.663659|   -4.954544|   -4.403130|   -4.455941|  -11.039413|    1.114085|
|         427|  7.1446e+00|   -4.309898|   -4.660063|   -4.952151|   -4.400206|   -4.453253|  -11.031313|    1.114177|
|         428|  7.1440e+00|   -4.306850|   -4.656375|   -4.949663|   -4.397243|   -4.450532|  -11.023301|    1.114312|
|         429|  7.1438e+00|   -4.303753|   -4.652609|   -4.947085|   -4.394244|   -4.447780|  -11.015270|    1.114490|
|         430|  7.1433e+00|   -4.300633|   -4.648783|   -4.944432|   -4.391233|   -4.445021|  -11.007244|    1.114710|
|         431|  7.1428e+00|   -4.297489|   -4.644899|   -4.941704|   -4.388206|   -4.442248|  -10.999323|    1.114972|
|         432|  7.1423e+00|   -4.294308|   -4.640959|   -4.938907|   -4.385139|   -4.439437|  -10.991566|    1.115277|
|         433|  7.1419e+00|   -4.291105|   -4.636975|   -4.936042|   -4.382040|   -4.436593|  -10.984033|    1.115623|
|         434|  7.1414e+00|   -4.287886|   -4.632957|   -4.933123|   -4.378919|   -4.433725|  -10.976764|    1.116012|
|         435|  7.1411e+00|   -4.284657|   -4.628921|   -4.930169|   -4.375777|   -4.430832|  -10.969804|    1.116442|
|         436|  7.1407e+00|   -4.281421|   -4.624878|   -4.927190|   -4.372613|   -4.427912|  -10.963204|    1.116915|
|         437|  7.1402e+00|   -4.278183|   -4.620837|   -4.924206|   -4.369432|   -4.424963|  -10.956921|    1.117431|
|         438|  7.1399e+00|   -4.274954|   -4.616814|   -4.921223|   -4.366242|   -4.421994|  -10.950831|    1.117989|
|         439|  7.1398e+00|   -4.271746|   -4.612825|   -4.918249|   -4.363060|   -4.419020|  -10.944821|    1.118590|
|         440|  7.1395e+00|   -4.268558|   -4.608874|   -4.915282|   -4.359880|   -4.416033|  -10.938819|    1.119234|
|         441|  7.1393e+00|   -4.265406|   -4.604980|   -4.912329|   -4.356721|   -4.413050|  -10.932834|    1.119920|
|         442|  7.1391e+00|   -4.262273|   -4.601145|   -4.909395|   -4.353556|   -4.410044|  -10.926929|    1.120650|
|         443|  7.1387e+00|   -4.259171|   -4.597380|   -4.906487|   -4.350408|   -4.407034|  -10.921073|    1.121423|
|         444|  7.1383e+00|   -4.256099|   -4.593681|   -4.903604|   -4.347281|   -4.404023|  -10.915282|    1.122238|
|         445|  7.1379e+00|   -4.253120|   -4.590082|   -4.900807|   -4.344242|   -4.401083|  -10.909525|    1.123095|
|         446|  7.1377e+00|   -4.250174|   -4.586565|   -4.898045|   -4.341220|   -4.398137|  -10.903736|    1.123995|
|         447|  7.1373e+00|   -4.247303|   -4.583150|   -4.895341|   -4.338268|   -4.395238|  -10.897879|    1.124936|
|         448|  7.1370e+00|   -4.244486|   -4.579833|   -4.892680|   -4.335357|   -4.392358|  -10.891941|    1.125918|
|         449|  7.1366e+00|   -4.241704|   -4.576615|   -4.890082|   -4.332458|   -4.389473|  -10.885943|    1.126940|
|         450|  7.1363e+00|   -4.238958|   -4.573502|   -4.887554|   -4.329572|   -4.386589|  -10.879864|    1.128003|
+-----------------------------------------------------------------------+
|        File Writing Summary       |              Filename             |
+-----------------------------------------------------------------------+
|SU2 binary restart                 |restart_flow.dat                   |
|Paraview                           |flow.vtu                           |
|Paraview surface                   |surface_flow.vtu                   |
+-----------------------------------------------------------------------+
+--------------------------------------------------------------------------------------------------------------------+
|  Inner_Iter|   Time(sec)|    rms[Rho]|   rms[RhoU]|   rms[RhoV]|   rms[RhoW]|   rms[RhoE]|     rms[nu]|          CD|
+--------------------------------------------------------------------------------------------------------------------+
|         451|  7.1818e+00|   -4.236253|   -4.570499|   -4.885058|   -4.326695|   -4.383698|  -10.873670|    1.129104|
|         452|  7.1819e+00|   -4.233566|   -4.567590|   -4.882584|   -4.323814|   -4.380790|  -10.867365|    1.130244|
|         453|  7.1819e+00|   -4.230898|   -4.564774|   -4.880131|   -4.320942|   -4.377884|  -10.860960|    1.131421|
|         454|  7.1815e+00|   -4.228228|   -4.562045|   -4.877697|   -4.318052|   -4.374959|  -10.854447|    1.132635|
|         455|  7.1813e+00|   -4.225564|   -4.559401|   -4.875282|   -4.315164|   -4.372037|  -10.847846|    1.133884|
|         456|  7.1810e+00|   -4.222900|   -4.556837|   -4.872881|   -4.312274|   -4.369118|  -10.841136|    1.135169|
|         457|  7.1808e+00|   -4.220216|   -4.554347|   -4.870490|   -4.309362|   -4.366187|  -10.834283|    1.136488|
|         458|  7.1806e+00|   -4.217510|   -4.551922|   -4.868107|   -4.306437|   -4.363254|  -10.827328|    1.137840|
|         459|  7.1801e+00|   -4.214779|   -4.549550|   -4.865721|   -4.303493|   -4.360315|  -10.820261|    1.139224|
|         460|  7.1798e+00|   -4.212079|   -4.547252|   -4.863357|   -4.300596|   -4.357439|  -10.813096|    1.140639|
|         461|  7.1797e+00|   -4.209364|   -4.544997|   -4.861001|   -4.297697|   -4.354572|  -10.805849|    1.142086|
|         462|  7.1795e+00|   -4.206618|   -4.542765|   -4.858648|   -4.294780|   -4.351695|  -10.798538|    1.143561|
|         463|  7.1790e+00|   -4.203894|   -4.540558|   -4.856306|   -4.291912|   -4.348876|  -10.791192|    1.145066|
|         464|  7.1785e+00|   -4.201203|   -4.538374|   -4.853998|   -4.289101|   -4.346118|  -10.783851|    1.146598|
|         465|  7.1783e+00|   -4.198478|   -4.536168|   -4.851691|   -4.286275|   -4.343342|  -10.776482|    1.148158|
|         466|  7.1781e+00|   -4.195726|   -4.533923|   -4.849391|   -4.283441|   -4.340555|  -10.769049|    1.149744|
|         467|  7.1777e+00|   -4.192968|   -4.531635|   -4.847113|   -4.280625|   -4.337779|  -10.761550|    1.151355|
|         468|  7.1773e+00|   -4.190223|   -4.529289|   -4.844837|   -4.277854|   -4.335034|  -10.753990|    1.152990|
|         469|  7.1769e+00|   -4.187465|   -4.526868|   -4.842555|   -4.275093|   -4.332282|  -10.746365|    1.154649|
|         470|  7.1767e+00|   -4.184693|   -4.524368|   -4.840287|   -4.272334|   -4.329515|  -10.738662|    1.156331|
|         471|  7.1766e+00|   -4.181930|   -4.521806|   -4.838067|   -4.269602|   -4.326760|  -10.730904|    1.158035|
|         472|  7.1762e+00|   -4.179182|   -4.519180|   -4.835866|   -4.266894|   -4.324009|  -10.723126|    1.159759|
|         473|  7.1759e+00|   -4.176494|   -4.516531|   -4.833746|   -4.264252|   -4.321313|  -10.715337|    1.161504|
|         474|  7.1755e+00|   -4.173872|   -4.513852|   -4.831654|   -4.261680|   -4.318671|  -10.707537|    1.163267|
|         475|  7.1751e+00|   -4.171342|   -4.511172|   -4.829597|   -4.259200|   -4.316105|  -10.699751|    1.165048|
|         476|  7.1745e+00|   -4.168940|   -4.508517|   -4.827599|   -4.256847|   -4.313648|  -10.691957|    1.166846|
|         477|  7.1741e+00|   -4.166646|   -4.505900|   -4.825658|   -4.254587|   -4.311267|  -10.684130|    1.168659|
|         478|  7.1737e+00|   -4.164518|   -4.503364|   -4.823842|   -4.252479|   -4.309028|  -10.676229|    1.170487|
|         479|  7.1732e+00|   -4.162523|   -4.500916|   -4.822114|   -4.250477|   -4.306884|  -10.668231|    1.172328|
|         480|  7.1721e+00|   -4.160653|   -4.498558|   -4.820462|   -4.248571|   -4.304826|  -10.660173|    1.174181|
|         481|  7.1708e+00|   -4.158939|   -4.496314|   -4.818914|   -4.246801|   -4.302896|  -10.652068|    1.176045|
|         482|  7.1695e+00|   -4.157381|   -4.494191|   -4.817451|   -4.245168|   -4.301097|  -10.643948|    1.177918|
|         483|  7.1683e+00|   -4.155970|   -4.492200|   -4.816084|   -4.243656|   -4.299412|  -10.635847|    1.179800|
|         484|  7.1670e+00|   -4.154672|   -4.490316|   -4.814799|   -4.242244|   -4.297822|  -10.627785|    1.181689|
|         485|  7.1658e+00|   -4.153477|   -4.488532|   -4.813590|   -4.240925|   -4.296322|  -10.619780|    1.183584|
|         486|  7.1647e+00|   -4.152370|   -4.486846|   -4.812469|   -4.239692|   -4.294905|  -10.611866|    1.185484|
|         487|  7.1635e+00|   -4.151352|   -4.485251|   -4.811439|   -4.238554|   -4.293584|  -10.604001|    1.187386|
|         488|  7.1622e+00|   -4.150431|   -4.483741|   -4.810499|   -4.237520|   -4.292365|  -10.596192|    1.189291|
|         489|  7.1611e+00|   -4.149689|   -4.482344|   -4.809701|   -4.236687|   -4.291344|  -10.588415|    1.191196|
|         490|  7.1600e+00|   -4.149104|   -4.481052|   -4.809040|   -4.236025|   -4.290496|  -10.580690|    1.193101|
|         491|  7.1588e+00|   -4.148577|   -4.479823|   -4.808457|   -4.235422|   -4.289701|  -10.573081|    1.195004|
|         492|  7.1577e+00|   -4.148104|   -4.478647|   -4.807933|   -4.234880|   -4.288958|  -10.565618|    1.196903|
|         493|  7.1567e+00|   -4.147686|   -4.477519|   -4.807475|   -4.234401|   -4.288272|  -10.558263|    1.198798|
|         494|  7.1554e+00|   -4.147326|   -4.476443|   -4.807079|   -4.233990|   -4.287646|  -10.551011|    1.200687|
|         495|  7.1543e+00|   -4.147033|   -4.475419|   -4.806743|   -4.233657|   -4.287090|  -10.543806|    1.202569|
|         496|  7.1531e+00|   -4.146847|   -4.474469|   -4.806483|   -4.233440|   -4.286647|  -10.536602|    1.204444|
|         497|  7.1520e+00|   -4.146774|   -4.473590|   -4.806277|   -4.233347|   -4.286320|  -10.529428|    1.206308|
|         498|  7.1508e+00|   -4.146798|   -4.472780|   -4.806136|   -4.233351|   -4.286086|  -10.522278|    1.208162|
|         499|  7.1496e+00|   -4.146911|   -4.472054|   -4.806074|   -4.233434|   -4.285924|  -10.515130|    1.210005|
|         500|  7.1486e+00|   -4.147081|   -4.471385|   -4.806077|   -4.233562|   -4.285803|  -10.508017|    1.211834|
|         501|  7.1474e+00|   -4.147413|   -4.470832|   -4.806168|   -4.233838|   -4.285820|  -10.500912|    1.213650|
|         502|  7.1464e+00|   -4.147857|   -4.470367|   -4.806382|   -4.234210|   -4.285935|  -10.493814|    1.215451|
|         503|  7.1453e+00|   -4.148408|   -4.469986|   -4.806712|   -4.234669|   -4.286139|  -10.486710|    1.217235|
|         504|  7.1444e+00|   -4.149038|   -4.469678|   -4.807125|   -4.235183|   -4.286398|  -10.479572|    1.219003|
|         505|  7.1433e+00|   -4.149731|   -4.469442|   -4.807604|   -4.235733|   -4.286693|  -10.472381|    1.220753|
|         506|  7.1422e+00|   -4.150524|   -4.469299|   -4.808180|   -4.236357|   -4.287068|  -10.465131|    1.222484|
|         507|  7.1411e+00|   -4.151410|   -4.469253|   -4.808831|   -4.237047|   -4.287514|  -10.457832|    1.224196|
|         508|  7.1400e+00|   -4.152416|   -4.469322|   -4.809562|   -4.237831|   -4.288063|  -10.450495|    1.225887|
|         509|  7.1390e+00|   -4.153567|   -4.469527|   -4.810424|   -4.238735|   -4.288748|  -10.443093|    1.227558|
|         510|  7.1379e+00|   -4.154807|   -4.469838|   -4.811334|   -4.239712|   -4.289513|  -10.435611|    1.229206|
|         511|  7.1369e+00|   -4.156134|   -4.470246|   -4.812283|   -4.240770|   -4.290363|  -10.428039|    1.230833|
|         512|  7.1357e+00|   -4.157521|   -4.470734|   -4.813258|   -4.241886|   -4.291275|  -10.420324|    1.232436|
|         513|  7.1346e+00|   -4.158967|   -4.471299|   -4.814277|   -4.243064|   -4.292254|  -10.412464|    1.234016|
|         514|  7.1336e+00|   -4.160509|   -4.471957|   -4.815371|   -4.244346|   -4.293341|  -10.404446|    1.235572|
|         515|  7.1326e+00|   -4.162165|   -4.472708|   -4.816552|   -4.245756|   -4.294559|  -10.396262|    1.237104|
|         516|  7.1316e+00|   -4.163941|   -4.473543|   -4.817819|   -4.247298|   -4.295909|  -10.387942|    1.238611|
|         517|  7.1305e+00|   -4.165800|   -4.474449|   -4.819169|   -4.248934|   -4.297346|  -10.379501|    1.240092|
|         518|  7.1294e+00|   -4.167733|   -4.475434|   -4.820633|   -4.250654|   -4.298860|  -10.370942|    1.241548|
|         519|  7.1283e+00|   -4.169743|   -4.476492|   -4.822195|   -4.252459|   -4.300451|  -10.362283|    1.242978|
|         520|  7.1271e+00|   -4.171824|   -4.477615|   -4.823848|   -4.254346|   -4.302113|  -10.353539|    1.244381|
|         521|  7.1258e+00|   -4.173996|   -4.478811|   -4.825622|   -4.256334|   -4.303868|  -10.344726|    1.245757|
|         522|  7.1247e+00|   -4.176228|   -4.480066|   -4.827473|   -4.258391|   -4.305679|  -10.335868|    1.247107|
|         523|  7.1236e+00|   -4.178513|   -4.481385|   -4.829402|   -4.260506|   -4.307539|  -10.326949|    1.248429|
|         524|  7.1226e+00|   -4.180897|   -4.482786|   -4.831453|   -4.262723|   -4.309492|  -10.318017|    1.249722|
|         525|  7.1215e+00|   -4.183387|   -4.484269|   -4.833621|   -4.265058|   -4.311554|  -10.309082|    1.250988|
|         526|  7.1204e+00|   -4.185960|   -4.485823|   -4.835891|   -4.267487|   -4.313703|  -10.300202|    1.252225|
|         527|  7.1193e+00|   -4.188631|   -4.487451|   -4.838259|   -4.270016|   -4.315947|  -10.291369|    1.253433|
|         528|  7.1183e+00|   -4.191398|   -4.489155|   -4.840721|   -4.272639|   -4.318282|  -10.282613|    1.254611|
|         529|  7.1171e+00|   -4.194324|   -4.490970|   -4.843306|   -4.275418|   -4.320772|  -10.273901|    1.255759|
|         530|  7.1162e+00|   -4.197349|   -4.492875|   -4.845982|   -4.278290|   -4.323354|  -10.265263|    1.256877|
|         531|  7.1153e+00|   -4.200467|   -4.494878|   -4.848762|   -4.281255|   -4.326027|  -10.256677|    1.257964|
|         532|  7.1141e+00|   -4.203666|   -4.496975|   -4.851628|   -4.284300|   -4.328781|  -10.248151|    1.259020|
|         533|  7.1131e+00|   -4.206929|   -4.499157|   -4.854559|   -4.287414|   -4.331607|  -10.239717|    1.260044|
|         534|  7.1122e+00|   -4.210252|   -4.501423|   -4.857540|   -4.290598|   -4.334509|  -10.231286|    1.261037|
|         535|  7.1112e+00|   -4.213617|   -4.503766|   -4.860562|   -4.293837|   -4.337470|  -10.222877|    1.261997|
|         536|  7.1102e+00|   -4.217036|   -4.506189|   -4.863644|   -4.297146|   -4.340509|  -10.214529|    1.262925|
|         537|  7.1092e+00|   -4.220482|   -4.508675|   -4.866770|   -4.300501|   -4.343601|  -10.206270|    1.263820|
|         538|  7.1083e+00|   -4.223956|   -4.511222|   -4.869943|   -4.303897|   -4.346746|  -10.198067|    1.264683|
[...]
|        4201|  7.1485e+00|   -7.740777|   -7.997692|   -8.339289|   -7.854225|   -7.894752|   -9.400334|    1.226475|
|        4202|  7.1485e+00|   -7.735269|   -7.991150|   -8.335769|   -7.848391|   -7.890380|   -9.405195|    1.226475|
|        4203|  7.1485e+00|   -7.729377|   -7.984123|   -8.332065|   -7.842041|   -7.885427|   -9.410089|    1.226475|
|        4204|  7.1485e+00|   -7.723169|   -7.976702|   -8.328204|   -7.835261|   -7.879970|   -9.415015|    1.226474|
|        4205|  7.1485e+00|   -7.716709|   -7.968974|   -8.324217|   -7.828134|   -7.874083|   -9.419971|    1.226474|
|        4206|  7.1485e+00|   -7.710055|   -7.961020|   -8.320128|   -7.820739|   -7.867839|   -9.424955|    1.226474|
|        4207|  7.1485e+00|   -7.703264|   -7.952913|   -8.315964|   -7.813148|   -7.861309|   -9.429965|    1.226474|
|        4208|  7.1484e+00|   -7.696387|   -7.944720|   -8.311749|   -7.805427|   -7.854558|   -9.434999|    1.226473|
|        4209|  7.1484e+00|   -7.689470|   -7.936499|   -8.307506|   -7.797635|   -7.847648|   -9.440057|    1.226473|
|        4210|  7.1484e+00|   -7.682555|   -7.928303|   -8.303258|   -7.789826|   -7.840635|   -9.445136|    1.226473|
|        4211|  7.1484e+00|   -7.675678|   -7.920176|   -8.299023|   -7.782047|   -7.833569|   -9.450235|    1.226472|
|        4212|  7.1484e+00|   -7.668874|   -7.912158|   -8.294820|   -7.774340|   -7.826497|   -9.455353|    1.226472|
|        4213|  7.1484e+00|   -7.662170|   -7.904282|   -8.290667|   -7.766739|   -7.819459|   -9.460487|    1.226472|
|        4214|  7.1483e+00|   -7.655593|   -7.896577|   -8.286580|   -7.759277|   -7.812491|   -9.465637|    1.226471|
|        4215|  7.1483e+00|   -7.649164|   -7.889068|   -8.282572|   -7.751979|   -7.805625|   -9.470800|    1.226471|
|        4216|  7.1483e+00|   -7.642901|   -7.881774|   -8.278657|   -7.744869|   -7.798889|   -9.475975|    1.226471|
|        4217|  7.1483e+00|   -7.636823|   -7.874712|   -8.274847|   -7.737964|   -7.792305|   -9.481161|    1.226470|
|        4218|  7.1482e+00|   -7.630941|   -7.867896|   -8.271152|   -7.731281|   -7.785896|   -9.486357|    1.226470|
|        4219|  7.1482e+00|   -7.625269|   -7.861338|   -8.267583|   -7.724834|   -7.779677|   -9.491560|    1.226470|
|        4220|  7.1482e+00|   -7.619816|   -7.855046|   -8.264148|   -7.718633|   -7.773665|   -9.496769|    1.226469|
|        4221|  7.1482e+00|   -7.614590|   -7.849028|   -8.260854|   -7.712687|   -7.767871|   -9.501983|    1.226469|
|        4222|  7.1481e+00|   -7.609599|   -7.843290|   -8.257710|   -7.707003|   -7.762307|   -9.507200|    1.226468|
|        4223|  7.1481e+00|   -7.604848|   -7.837836|   -8.254720|   -7.701588|   -7.756981|   -9.512419|    1.226468|
|        4224|  7.1481e+00|   -7.600341|   -7.832669|   -8.251890|   -7.696445|   -7.751900|   -9.517638|    1.226467|
|        4225|  7.1480e+00|   -7.596084|   -7.827792|   -8.249226|   -7.691578|   -7.747071|   -9.522855|    1.226467|
|        4226|  7.1480e+00|   -7.592077|   -7.823206|   -8.246732|   -7.686990|   -7.742498|   -9.528069|    1.226467|
|        4227|  7.1480e+00|   -7.588325|   -7.818912|   -8.244411|   -7.682682|   -7.738185|   -9.533279|    1.226466|
|        4228|  7.1480e+00|   -7.584827|   -7.814910|   -8.242266|   -7.678657|   -7.734135|   -9.538482|    1.226466|
|        4229|  7.1479e+00|   -7.581587|   -7.811201|   -8.240301|   -7.674913|   -7.730351|   -9.543676|    1.226465|
|        4230|  7.1479e+00|   -7.578604|   -7.807785|   -8.238518|   -7.671453|   -7.726835|   -9.548860|    1.226464|
|        4231|  7.1479e+00|   -7.575879|   -7.804660|   -8.236919|   -7.668275|   -7.723587|   -9.554032|    1.226464|
|        4232|  7.1479e+00|   -7.573413|   -7.801826|   -8.235507|   -7.665380|   -7.720609|   -9.559188|    1.226463|
|        4233|  7.1479e+00|   -7.571205|   -7.799281|   -8.234281|   -7.662766|   -7.717901|   -9.564329|    1.226463|
|        4234|  7.1478e+00|   -7.569255|   -7.797026|   -8.233244|   -7.660434|   -7.715463|   -9.569449|    1.226462|
|        4235|  7.1478e+00|   -7.567562|   -7.795058|   -8.232397|   -7.658382|   -7.713295|   -9.574548|    1.226462|
|        4236|  7.1478e+00|   -7.566127|   -7.793377|   -8.231741|   -7.656609|   -7.711398|   -9.579623|    1.226461|
|        4237|  7.1478e+00|   -7.564949|   -7.791982|   -8.231276|   -7.655115|   -7.709771|   -9.584669|    1.226460|
|        4238|  7.1478e+00|   -7.564028|   -7.790871|   -8.231003|   -7.653899|   -7.708414|   -9.589685|    1.226460|
|        4239|  7.1478e+00|   -7.563361|   -7.790044|   -8.230922|   -7.652960|   -7.707325|   -9.594667|    1.226459|
|        4240|  7.1478e+00|   -7.562950|   -7.789499|   -8.231033|   -7.652296|   -7.706505|   -9.599611|    1.226458|
|        4241|  7.1478e+00|   -7.562793|   -7.789236|   -8.231337|   -7.651908|   -7.705954|   -9.604513|    1.226458|
|        4242|  7.1478e+00|   -7.562890|   -7.789253|   -8.231832|   -7.651793|   -7.705670|   -9.609370|    1.226457|
|        4243|  7.1477e+00|   -7.563239|   -7.789550|   -8.232520|   -7.651952|   -7.705653|   -9.614177|    1.226456|
|        4244|  7.1477e+00|   -7.563841|   -7.790126|   -8.233399|   -7.652384|   -7.705903|   -9.618929|    1.226456|
|        4245|  7.1477e+00|   -7.564695|   -7.790981|   -8.234469|   -7.653089|   -7.706419|   -9.623621|    1.226455|
|        4246|  7.1477e+00|   -7.565799|   -7.792114|   -8.235729|   -7.654064|   -7.707200|   -9.628248|    1.226454|
|        4247|  7.1477e+00|   -7.567154|   -7.793524|   -8.237179|   -7.655312|   -7.708247|   -9.632805|    1.226453|
|        4248|  7.1476e+00|   -7.568758|   -7.795212|   -8.238818|   -7.656829|   -7.709558|   -9.637285|    1.226453|
|        4249|  7.1476e+00|   -7.570612|   -7.797177|   -8.240645|   -7.658618|   -7.711135|   -9.641683|    1.226452|
|        4250|  7.1476e+00|   -7.572715|   -7.799420|   -8.242659|   -7.660677|   -7.712975|   -9.645992|    1.226451|
|        4251|  7.1476e+00|   -7.575065|   -7.801939|   -8.244858|   -7.663006|   -7.715080|   -9.650205|    1.226450|
|        4252|  7.1476e+00|   -7.577664|   -7.804736|   -8.247240|   -7.665606|   -7.717448|   -9.654315|    1.226449|
|        4253|  7.1476e+00|   -7.580509|   -7.807810|   -8.249805|   -7.668475|   -7.720080|   -9.658315|    1.226449|
|        4254|  7.1476e+00|   -7.583600|   -7.811162|   -8.252550|   -7.671615|   -7.722976|   -9.662196|    1.226448|
|        4255|  7.1475e+00|   -7.586937|   -7.814791|   -8.255474|   -7.675026|   -7.726135|   -9.665953|    1.226447|
|        4256|  7.1475e+00|   -7.590519|   -7.818699|   -8.258573|   -7.678707|   -7.729557|   -9.669575|    1.226446|
|        4257|  7.1475e+00|   -7.594345|   -7.822886|   -8.261846|   -7.682659|   -7.733242|   -9.673055|    1.226445|
|        4258|  7.1475e+00|   -7.598414|   -7.827351|   -8.265290|   -7.686881|   -7.737191|   -9.676386|    1.226444|
|        4259|  7.1474e+00|   -7.602726|   -7.832096|   -8.268902|   -7.691375|   -7.741401|   -9.679557|    1.226443|
|        4260|  7.1474e+00|   -7.607279|   -7.837121|   -8.272678|   -7.696140|   -7.745874|   -9.682561|    1.226442|
|        4261|  7.1474e+00|   -7.612071|   -7.842425|   -8.276615|   -7.701176|   -7.750609|   -9.685390|    1.226442|
|        4262|  7.1474e+00|   -7.617102|   -7.848009|   -8.280708|   -7.706483|   -7.755605|   -9.688035|    1.226441|
|        4263|  7.1474e+00|   -7.622369|   -7.853873|   -8.284954|   -7.712061|   -7.760861|   -9.690487|    1.226440|
|        4264|  7.1473e+00|   -7.627870|   -7.860016|   -8.289348|   -7.717909|   -7.766376|   -9.692740|    1.226439|
|        4265|  7.1473e+00|   -7.633603|   -7.866437|   -8.293883|   -7.724026|   -7.772148|   -9.694785|    1.226438|
|        4266|  7.1473e+00|   -7.639564|   -7.873137|   -8.298555|   -7.730412|   -7.778177|   -9.696615|    1.226437|
|        4267|  7.1473e+00|   -7.645750|   -7.880112|   -8.303356|   -7.737065|   -7.784459|   -9.698223|    1.226436|
|        4268|  7.1473e+00|   -7.652157|   -7.887362|   -8.308280|   -7.743984|   -7.790992|   -9.699603|    1.226435|
|        4269|  7.1473e+00|   -7.658780|   -7.894882|   -8.313318|   -7.751165|   -7.797774|   -9.700749|    1.226434|
|        4270|  7.1472e+00|   -7.665613|   -7.902671|   -8.318462|   -7.758607|   -7.804799|   -9.701656|    1.226433|
|        4271|  7.1472e+00|   -7.672650|   -7.910723|   -8.323704|   -7.766305|   -7.812064|   -9.702320|    1.226432|
|        4272|  7.1472e+00|   -7.679884|   -7.919034|   -8.329033|   -7.774254|   -7.819563|   -9.702737|    1.226431|
|        4273|  7.1472e+00|   -7.687306|   -7.927597|   -8.334438|   -7.782449|   -7.827289|   -9.702906|    1.226430|
|        4274|  7.1471e+00|   -7.694908|   -7.936404|   -8.339910|   -7.790883|   -7.835234|   -9.702823|    1.226429|
|        4275|  7.1471e+00|   -7.702677|   -7.945446|   -8.345435|   -7.799547|   -7.843388|   -9.702487|    1.226428|
|        4276|  7.1471e+00|   -7.710601|   -7.954711|   -8.351000|   -7.808430|   -7.851740|   -9.701900|    1.226427|
|        4277|  7.1471e+00|   -7.718667|   -7.964184|   -8.356592|   -7.817521|   -7.860276|   -9.701062|    1.226426|
|        4278|  7.1470e+00|   -7.726856|   -7.973848|   -8.362195|   -7.826805|   -7.868980|   -9.699975|    1.226425|
|        4279|  7.1470e+00|   -7.735150|   -7.983683|   -8.367792|   -7.836263|   -7.877834|   -9.698641|    1.226424|
|        4280|  7.1470e+00|   -7.743528|   -7.993664|   -8.373368|   -7.845876|   -7.886817|   -9.697064|    1.226423|
|        4281|  7.1470e+00|   -7.751966|   -8.003764|   -8.378903|   -7.855619|   -7.895904|   -9.695249|    1.226421|
|        4282|  7.1470e+00|   -7.760436|   -8.013949|   -8.384378|   -7.865466|   -7.905068|   -9.693201|    1.226420|
|        4283|  7.1469e+00|   -7.768910|   -8.024183|   -8.389773|   -7.875384|   -7.914279|   -9.690926|    1.226419|
|        4284|  7.1469e+00|   -7.777354|   -8.034423|   -8.395067|   -7.885339|   -7.923502|   -9.688431|    1.226418|
|        4285|  7.1469e+00|   -7.785733|   -8.044621|   -8.400239|   -7.895290|   -7.932698|   -9.685724|    1.226417|
|        4286|  7.1469e+00|   -7.794008|   -8.054724|   -8.405267|   -7.905193|   -7.941826|   -9.682811|    1.226416|
|        4287|  7.1469e+00|   -7.802140|   -8.064671|   -8.410129|   -7.914997|   -7.950837|   -9.679702|    1.226415|
|        4288|  7.1469e+00|   -7.810084|   -8.074398|   -8.414802|   -7.924648|   -7.959683|   -9.676406|    1.226414|
|        4289|  7.1469e+00|   -7.817794|   -8.083835|   -8.419266|   -7.934085|   -7.968308|   -9.672931|    1.226413|
|        4290|  7.1468e+00|   -7.825222|   -8.092907|   -8.423499|   -7.943245|   -7.976654|   -9.669286|    1.226412|
|        4291|  7.1468e+00|   -7.832320|   -8.101533|   -8.427482|   -7.952059|   -7.984660|   -9.665482|    1.226411|
|        4292|  7.1468e+00|   -7.839038|   -8.109633|   -8.431195|   -7.960453|   -7.992262|   -9.661527|    1.226410|
|        4293|  7.1468e+00|   -7.845326|   -8.117124|   -8.434621|   -7.968355|   -7.999396|   -9.657432|    1.226409|
|        4294|  7.1468e+00|   -7.851135|   -8.123924|   -8.437744|   -7.975688|   -8.005996|   -9.653205|    1.226408|
|        4295|  7.1468e+00|   -7.856421|   -8.129957|   -8.440551|   -7.982380|   -8.012000|   -9.648858|    1.226407|
|        4296|  7.1468e+00|   -7.861139|   -8.135150|   -8.443030|   -7.988358|   -8.017348|   -9.644398|    1.226406|
|        4297|  7.1468e+00|   -7.865253|   -8.139442|   -8.445173|   -7.993560|   -8.021986|   -9.639835|    1.226404|
|        4298|  7.1468e+00|   -7.868729|   -8.142784|   -8.446972|   -7.997927|   -8.025866|   -9.635179|    1.226403|
|        4299|  7.1467e+00|   -7.871544|   -8.145140|   -8.448424|   -8.001415|   -8.028952|   -9.630438|    1.226402|
|        4300|  7.1467e+00|   -7.873679|   -8.146490|   -8.449528|   -8.003989|   -8.031214|   -9.625621|    1.226401|
|        4301|  7.1467e+00|   -7.875125|   -8.146833|   -8.450286|   -8.005629|   -8.032637|   -9.620736|    1.226400|
|        4302|  7.1467e+00|   -7.875882|   -8.146183|   -8.450702|   -8.006330|   -8.033218|   -9.615790|    1.226399|
|        4303|  7.1466e+00|   -7.875959|   -8.144571|   -8.450783|   -8.006103|   -8.032966|   -9.610793|    1.226398|
|        4304|  7.1466e+00|   -7.875372|   -8.142043|   -8.450539|   -8.004973|   -8.031901|   -9.605751|    1.226397|
|        4305|  7.1466e+00|   -7.874146|   -8.138658|   -8.449981|   -8.002978|   -8.030056|   -9.600671|    1.226396|
|        4306|  7.1466e+00|   -7.872312|   -8.134486|   -8.449123|   -8.000167|   -8.027472|   -9.595560|    1.226395|
|        4307|  7.1466e+00|   -7.869909|   -8.129601|   -8.447982|   -7.996600|   -8.024201|   -9.590425|    1.226394|
|        4308|  7.1466e+00|   -7.866977|   -8.124084|   -8.446575|   -7.992345|   -8.020298|   -9.585270|    1.226393|
|        4309|  7.1465e+00|   -7.863565|   -8.118018|   -8.444920|   -7.987473|   -8.015824|   -9.580103|    1.226392|
|        4310|  7.1465e+00|   -7.859718|   -8.111484|   -8.443036|   -7.982057|   -8.010844|   -9.574928|    1.226391|
|        4311|  7.1465e+00|   -7.855488|   -8.104563|   -8.440945|   -7.976174|   -8.005421|   -9.569751|    1.226390|
|        4312|  7.1465e+00|   -7.850923|   -8.097330|   -8.438667|   -7.969895|   -7.999621|   -9.564576|    1.226389|
|        4313|  7.1465e+00|   -7.846073|   -8.089856|   -8.436223|   -7.963293|   -7.993505|   -9.559408|    1.226388|
|        4314|  7.1465e+00|   -7.840985|   -8.082206|   -8.433634|   -7.956434|   -7.987133|   -9.554251|    1.226387|
|        4315|  7.1465e+00|   -7.835704|   -8.074442|   -8.430921|   -7.949380|   -7.980562|   -9.549109|    1.226386|
|        4316|  7.1464e+00|   -7.830274|   -8.066615|   -8.428105|   -7.942189|   -7.973844|   -9.543986|    1.226386|
|        4317|  7.1464e+00|   -7.824734|   -8.058776|   -8.425206|   -7.934914|   -7.967027|   -9.538885|    1.226385|
|        4318|  7.1464e+00|   -7.819121|   -8.050967|   -8.422243|   -7.927601|   -7.960155|   -9.533809|    1.226384|
|        4319|  7.1464e+00|   -7.813471|   -8.043224|   -8.419234|   -7.920292|   -7.953267|   -9.528762|    1.226383|
|        4320|  7.1464e+00|   -7.807813|   -8.035579|   -8.416198|   -7.913023|   -7.946397|   -9.523747|    1.226382|
|        4321|  7.1463e+00|   -7.802176|   -8.028058|   -8.413149|   -7.905828|   -7.939576|   -9.518765|    1.226381|
|        4322|  7.1463e+00|   -7.796585|   -8.020686|   -8.410104|   -7.898734|   -7.932834|   -9.513820|    1.226380|
|        4323|  7.1463e+00|   -7.791063|   -8.013481|   -8.407077|   -7.891765|   -7.926193|   -9.508913|    1.226379|
|        4324|  7.1463e+00|   -7.785630|   -8.006462|   -8.404082|   -7.884944|   -7.919676|   -9.504048|    1.226379|
|        4325|  7.1463e+00|   -7.780305|   -7.999641|   -8.401132|   -7.878289|   -7.913300|   -9.499225|    1.226378|
|        4326|  7.1463e+00|   -7.775103|   -7.993030|   -8.398237|   -7.871814|   -7.907083|   -9.494447|    1.226377|
|        4327|  7.1462e+00|   -7.770039|   -7.986641|   -8.395410|   -7.865533|   -7.901037|   -9.489716|    1.226376|
|        4328|  7.1462e+00|   -7.765125|   -7.980480|   -8.392659|   -7.859457|   -7.895175|   -9.485032|    1.226375|
|        4329|  7.1462e+00|   -7.760372|   -7.974554|   -8.389994|   -7.853596|   -7.889507|   -9.480399|    1.226374|
|        4330|  7.1462e+00|   -7.755790|   -7.968869|   -8.387424|   -7.847957|   -7.884041|   -9.475816|    1.226374|
|        4331|  7.1461e+00|   -7.751386|   -7.963429|   -8.384955|   -7.842545|   -7.878784|   -9.471286|    1.226373|
|        4332|  7.1461e+00|   -7.747168|   -7.958238|   -8.382597|   -7.837367|   -7.873743|   -9.466810|    1.226372|
|        4333|  7.1461e+00|   -7.743142|   -7.953297|   -8.380354|   -7.832426|   -7.868921|   -9.462388|    1.226371|
|        4334|  7.1461e+00|   -7.739312|   -7.948608|   -8.378233|   -7.827724|   -7.864322|   -9.458023|    1.226371|
|        4335|  7.1461e+00|   -7.735682|   -7.944171|   -8.376240|   -7.823264|   -7.859949|   -9.453715|    1.226370|
|        4336|  7.1461e+00|   -7.732255|   -7.939987|   -8.374379|   -7.819046|   -7.855804|   -9.449464|    1.226369|
|        4337|  7.1461e+00|   -7.729033|   -7.936056|   -8.372655|   -7.815071|   -7.851887|   -9.445273|    1.226369|
|        4338|  7.1460e+00|   -7.726020|   -7.932376|   -8.371072|   -7.811340|   -7.848201|   -9.441142|    1.226368|
|        4339|  7.1460e+00|   -7.723215|   -7.928946|   -8.369633|   -7.807852|   -7.844744|   -9.437071|    1.226367|
|        4340|  7.1460e+00|   -7.720620|   -7.925764|   -8.368343|   -7.804606|   -7.841518|   -9.433061|    1.226367|
|        4341|  7.1460e+00|   -7.718234|   -7.922830|   -8.367203|   -7.801602|   -7.838520|   -9.429113|    1.226366|
|        4342|  7.1460e+00|   -7.716060|   -7.920140|   -8.366215|   -7.798837|   -7.835752|   -9.425228|    1.226365|
|        4343|  7.1460e+00|   -7.714096|   -7.917693|   -8.365383|   -7.796311|   -7.833211|   -9.421406|    1.226365|
|        4344|  7.1459e+00|   -7.712341|   -7.915488|   -8.364709|   -7.794022|   -7.830897|   -9.417648|    1.226364|
|        4345|  7.1459e+00|   -7.710797|   -7.913521|   -8.364192|   -7.791969|   -7.828809|   -9.413955|    1.226364|
|        4346|  7.1459e+00|   -7.709463|   -7.911792|   -8.363836|   -7.790150|   -7.826946|   -9.410327|    1.226363|
|        4347|  7.1459e+00|   -7.708337|   -7.910297|   -8.363640|   -7.788564|   -7.825306|   -9.406765|    1.226362|
|        4348|  7.1459e+00|   -7.707419|   -7.909037|   -8.363606|   -7.787208|   -7.823888|   -9.403268|    1.226362|
|        4349|  7.1459e+00|   -7.706709|   -7.908009|   -8.363734|   -7.786082|   -7.822691|   -9.399839|    1.226361|
|        4350|  7.1458e+00|   -7.706206|   -7.907210|   -8.364025|   -7.785184|   -7.821714|   -9.396477|    1.226361|
+-----------------------------------------------------------------------+
|        File Writing Summary       |              Filename             |
+-----------------------------------------------------------------------+
|SU2 binary restart                 |restart_flow.dat                   |
|Paraview                           |flow.vtu                           |
|Paraview surface                   |surface_flow.vtu                   |
+-----------------------------------------------------------------------+
+--------------------------------------------------------------------------------------------------------------------+
|  Inner_Iter|   Time(sec)|    rms[Rho]|   rms[RhoU]|   rms[RhoV]|   rms[RhoW]|   rms[RhoE]|     rms[nu]|          CD|
+--------------------------------------------------------------------------------------------------------------------+
|        4351|  7.1503e+00|   -7.705908|   -7.906640|   -8.364479|   -7.784512|   -7.820956|   -9.393183|    1.226360|
|        4352|  7.1504e+00|   -7.705816|   -7.906297|   -8.365096|   -7.784064|   -7.820415|   -9.389957|    1.226360|
|        4353|  7.1504e+00|   -7.705927|   -7.906179|   -8.365877|   -7.783839|   -7.820089|   -9.386800|    1.226359|
|        4354|  7.1504e+00|   -7.706241|   -7.906285|   -8.366820|   -7.783836|   -7.819978|   -9.383713|    1.226359|
|        4355|  7.1504e+00|   -7.706757|   -7.906612|   -8.367925|   -7.784052|   -7.820079|   -9.380695|    1.226358|
|        4356|  7.1504e+00|   -7.707473|   -7.907159|   -8.369193|   -7.784486|   -7.820393|   -9.377748|    1.226358|
|        4357|  7.1504e+00|   -7.708388|   -7.907925|   -8.370623|   -7.785137|   -7.820916|   -9.374872|    1.226357|
|        4358|  7.1504e+00|   -7.709501|   -7.908908|   -8.372213|   -7.786003|   -7.821648|   -9.372066|    1.226357|
|        4359|  7.1504e+00|   -7.710811|   -7.910107|   -8.373963|   -7.787083|   -7.822587|   -9.369333|    1.226357|
|        4360|  7.1503e+00|   -7.712317|   -7.911519|   -8.375872|   -7.788375|   -7.823732|   -9.366672|    1.226356|
