Nodes: tri[0257-0258]
Tasks: 128
NPN:   64

-------------------------------------------------------------------------
|    ___ _   _ ___                                                      |
|   / __| | | |_  )   Release 7.5.1 "Blackbird"                         |
|   \__ \ |_| |/ /                                                      |
|   |___/\___//___|   Suite (Computational Fluid Dynamics Code)         |
|                                                                       |
-------------------------------------------------------------------------
| SU2 Project Website: https://su2code.github.io                        |
|                                                                       |
| The SU2 Project is maintained by the SU2 Foundation                   |
| (http://su2foundation.org)                                            |
-------------------------------------------------------------------------
| Copyright 2012-2023, SU2 Contributors                                 |
|                                                                       |
| SU2 is free software; you can redistribute it and/or                  |
| modify it under the terms of the GNU Lesser General Public            |
| License as published by the Free Software Foundation; either          |
| version 2.1 of the License, or (at your option) any later version.    |
|                                                                       |
| SU2 is distributed in the hope that it will be useful,                |
| but WITHOUT ANY WARRANTY; without even the implied warranty of        |
| MERCHANTABILITY or FITNESS FOR A PARTICULAR PURPOSE. See the GNU      |
| Lesser General Public License for more details.                       |
|                                                                       |
| You should have received a copy of the GNU Lesser General Public      |
| License along with SU2. If not, see <http://www.gnu.org/licenses/>.   |
-------------------------------------------------------------------------

Parsing config file for zone 0

----------------- Physical Case Definition ( Zone 0 ) -------------------
Compressible RANS equations.
Turbulence model: Negative-Spalart-Allmaras
Hybrid RANS/LES: No Hybrid RANS/LES
Mach number: 9.
Angle of attack (AoA): 0 deg, and angle of sideslip (AoS): 0 deg.
Reynolds number: 1.02934e+09. Reference length 5.
Reading and writing binary SU2 native restart files.
Read flow solution from: restart_flow.dat.
Non-Dimensional simulation (V=1.0, Rho=1.0, T=1.0 at the farfield).
The reference area will be computed using y(2D) or z(3D) projection.
The semi-span will be computed using the max y(3D) value.
The reference length is 0.64607 m.
Reference origin for moment evaluation is (0.25, 0, 0).
Surface(s) where the force coefficients are evaluated: ORION_SURFACE.

Input mesh file name: course.su2

--------------- Space Numerical Integration ( Zone 0 ) ------------------
Jameson-Schmidt-Turkel scheme (2nd order in space) for the flow inviscid terms.
JST viscous coefficients (2nd & 4th): 0.7, 0.05.
The method includes a grid stretching correction (p = 0.3).
Scalar upwind solver for the turbulence model.
First order integration in space.
Average of gradients with correction (viscous flow terms).
Average of gradients with correction (viscous turbulence terms).
Gradient for upwind reconstruction: Green-Gauss.
Gradient for viscous and source terms: Green-Gauss.

--------------- Time Numerical Integration  ( Zone 0 ) ------------------
Local time stepping (steady state simulation).
Euler implicit method for the flow equations.
FGMRES is used for solving the linear system.
Using a ILU(0) preconditioning.
Convergence criteria of the linear solver: 1e-05.
Max number of linear iterations: 100.
No CFL adaptation.
Courant-Friedrichs-Lewy number:   0.0008
Euler implicit time integration for the turbulence model.

------------------ Convergence Criteria  ( Zone 0 ) ---------------------
Maximum number of solver subiterations: 999999.
Begin convergence monitoring at iteration 5.
Residual minimum value: 1e-8.
Cauchy series min. value: 1e-10.
Number of Cauchy elements: 100.
Begin windowed time average at iteration 0.

-------------------- Output Information ( Zone 0 ) ----------------------
File writing frequency: 
+------------------------------------+
|                     File| Frequency|
+------------------------------------+
|                  RESTART|       150|
|                 PARAVIEW|       150|
|         SURFACE_PARAVIEW|       150|
+------------------------------------+
Writing the convergence history file every 1 inner iterations.
Writing the screen convergence history every 1 inner iterations.
The tabular file format is CSV (.csv).
Convergence history file name: history.
Forces breakdown file name: forces_breakdown.dat.
Surface file name: surface_flow.
Volume file name: flow.
Restart file name: restart_flow.

------------- Config File Boundary Information ( Zone 0 ) ---------------
+-----------------------------------------------------------------------+
|                        Marker Type|                        Marker Name|
+-----------------------------------------------------------------------+
|                          Far-field|                           FARFIELD|
+-----------------------------------------------------------------------+
|                     Heat flux wall|                      ORION_SURFACE|
+-----------------------------------------------------------------------+

-------------------- Output Preprocessing ( Zone 0 ) --------------------

WARNING: SURFACE_PRESSURE_DROP can only be computed for at least 2 surfaces (outlet, inlet, ...)

Screen output fields: INNER_ITER, WALL_TIME, MIN_DELTA_TIME, MAX_DELTA_TIME, MIN_CFL, MAX_CFL, AVG_CFL, RMS_DENSITY, RMS_MOMENTUM-X, RMS_MOMENTUM-Y, RMS_MOMENTUM-Z, RMS_ENERGY, RMS_NU_TILDE, DRAG
History output group(s): ITER, RMS_RES
Convergence field(s): RMS_DENSITY
Warning: No (valid) fields chosen for time convergence monitoring. Time convergence monitoring inactive.
Volume output fields: COORDINATES, SOLUTION, PRIMITIVE

------------------- Geometry Preprocessing ( Zone 0 ) -------------------
Three dimensional problem.
11720736 grid points before partitioning.
30680382 volume elements before partitioning.
2 surface markers.
790 boundary elements in index 0 (Marker = FARFIELD).
360672 boundary elements in index 1 (Marker = ORION_SURFACE).
Executing the partitioning functions.
Building the graph adjacency structure.
Calling ParMETIS... graph partitioning complete (1579501 edge cuts).
Distributing ParMETIS coloring.
Rebalancing vertices.
Rebalancing volume element connectivity.
Rebalancing markers and surface elements.
13574281 vertices including ghost points. 
32958004 interior elements including halo cells. 
11628872 tetrahedra.
21220846 prisms.
108286 pyramids.
Establishing MPI communication patterns.
Setting point connectivity.
Renumbering points (Reverse Cuthill McKee Ordering).
Recomputing point connectivity.
Setting element connectivity.
Checking the numerical grid orientation.
All volume elements are correctly orientend.
All surface elements are correctly orientend.
Identifying edges and vertices.
Setting the control volume structure.
Volume of the computational grid: 591575.
Searching for the closest normal neighbors to the surfaces.
Storing a mapping from global to local point index.
Compute the surface curvature.
Max K: 109.201. Mean K: 3.88946. Standard deviation K: 7.33798.
Checking for periodicity.
Computing mesh quality statistics for the dual control volumes.
+--------------------------------------------------------------+
|           Mesh Quality Metric|        Minimum|        Maximum|
+--------------------------------------------------------------+
|    Orthogonality Angle (deg.)|        52.6472|             90|
|     CV Face Area Aspect Ratio|        1.03802|         193380|
|           CV Sub-Volume Ratio|        1.00749|         34.476|
+--------------------------------------------------------------+
Finding max control volume width.
Communicating number of neighbors.
Reference area = 11.5305 m^2.
Semi-span length = 2.49994 m.
Wetted area = 57.8992 m^2.
Area projection in the x-plane = 19.6317 m^2, y-plane = 11.5307 m^2, z-plane = 11.5305 m^2.
Max. coordinate in the x-direction = 2.575 m, y-direction = 2.49994 m, z-direction = 2.49989 m.
Min. coordinate in the x-direction = -0.71 m, y-direction = -2.49995 m, z-direction = -2.49995 m.
Computing wall distances.

-------------------- Solver Preprocessing ( Zone 0 ) --------------------
Viscous flow: Computing pressure using the ideal gas law
based on the free-stream temperature and a density computed
from the Reynolds number.
Force coefficients computed using free-stream values.

-- Models:
+------------------------------------------------------------------------------+
|          Viscosity Model|        Conductivity Model|              Fluid Model|
+------------------------------------------------------------------------------+
|               SUTHERLAND|          CONSTANT_PRANDTL|             STANDARD_AIR|
+------------------------------------------------------------------------------+
-- Fluid properties:
+------------------------------------------------------------------------------+
|                  Name|    Dim. value|    Ref. value|      Unit|Non-dim. value|
+------------------------------------------------------------------------------+
|        Ref. Viscosity|     1.716e-05|        3683.6|   N.s/m^2|   4.65848e-09|
|      Sutherland Temp.|        273.15|        288.15|         K|      0.947944|
|     Sutherland Const.|         110.4|        288.15|         K|      0.383134|
+------------------------------------------------------------------------------+
|        Prandtl (Lam.)|             -|             -|         -|          0.72|
|       Prandtl (Turb.)|             -|             -|         -|           0.9|
+------------------------------------------------------------------------------+
|          Gas Constant|       287.058|       32552.4|  N.m/kg.K|    0.00881834|
|      Spec. Heat Ratio|             -|             -|         -|           1.4|
+------------------------------------------------------------------------------+
-- Initial and free-stream conditions:
+------------------------------------------------------------------------------+
|                  Name|    Dim. value|    Ref. value|      Unit|Non-dim. value|
+------------------------------------------------------------------------------+
|       Static Pressure|       99485.6|   1.12817e+07|        Pa|    0.00881834|
|               Density|       1.20274|       1.20274|    kg/m^3|             1|
|           Temperature|        288.15|        288.15|         K|             1|
|          Total Energy|   4.89677e+06|   9.37997e+06|   m^2/s^2|      0.522046|
|            Velocity-X|       3062.67|       3062.67|       m/s|             1|
|            Velocity-Y|             0|       3062.67|       m/s|             0|
|            Velocity-Z|             0|       3062.67|       m/s|             0|
|    Velocity Magnitude|       3062.67|       3062.67|       m/s|             1|
+------------------------------------------------------------------------------+
|             Viscosity|    1.7893e-05|        3683.6|   N.s/m^2|   4.85747e-09|
|          Conductivity|             -|    1.1991e+08|   W/m^2.K|             -|
|     Turb. Kin. Energy|       35174.9|   9.37997e+06|   m^2/s^2|       0.00375|
|     Spec. Dissipation|   2.36441e+08|       3062.67|       1/s|       77200.7|
+------------------------------------------------------------------------------+
|           Mach Number|             -|             -|         -|             9|
|       Reynolds Number|             -|             -|         -|   1.02934e+09|
+------------------------------------------------------------------------------+
Initialize Jacobian structure (Navier-Stokes). MG level: 0.
Initialize Jacobian structure (SA model).

------------------- Numerics Preprocessing ( Zone 0 ) -------------------

----------------- Integration Preprocessing ( Zone 0 ) ------------------

------------------- Iteration Preprocessing ( Zone 0 ) ------------------
Euler/Navier-Stokes/RANS fluid iteration.

------------------------------ Begin Solver -----------------------------

Simulation Run using the Single-zone Driver
WARNING: SU2 was not compiled for an AVX-capable architecture. Performance could be better,
         see https://su2code.github.io/docs_v7/Build-SU2-Linux-MacOS/#compiler-optimizations
+-------------------------------------------------------------------------------------------------------------------------------------------------------------------------------------+
|  Inner_Iter|   Time(sec)|      Min DT|      Max DT|     Min CFL|     Max CFL|     Avg CFL|    rms[Rho]|   rms[RhoU]|   rms[RhoV]|   rms[RhoW]|   rms[RhoE]|     rms[nu]|          CD|
+-------------------------------------------------------------------------------------------------------------------------------------------------------------------------------------+
|           0|  9.2636e-01|  4.1769e-11|  2.7798e-03|  8.0000e-04|  8.0000e-04|  8.0000e-04|   -4.555262|   -4.737612|   -5.175580|   -5.175501|   -4.777356|  -12.476218|    3.501779|
|           1|  8.4632e-01|  4.1769e-11|  2.7798e-03|  8.0000e-04|  8.0000e-04|  8.0000e-04|   -4.555252|   -4.737623|   -5.175580|   -5.175500|   -4.777345|  -12.476210|    3.501804|
|           2|  8.1793e-01|  4.1769e-11|  2.7798e-03|  8.0000e-04|  8.0000e-04|  8.0000e-04|   -4.555241|   -4.737634|   -5.175579|   -5.175499|   -4.777335|  -12.476202|    3.501829|
|           3|  8.0878e-01|  4.1769e-11|  2.7798e-03|  8.0000e-04|  8.0000e-04|  8.0000e-04|   -4.555231|   -4.737645|   -5.175578|   -5.175499|   -4.777324|  -12.476193|    3.501854|
|           4|  8.0039e-01|  4.1768e-11|  2.7798e-03|  8.0000e-04|  8.0000e-04|  8.0000e-04|   -4.555221|   -4.737656|   -5.175577|   -5.175498|   -4.777313|  -12.476185|    3.501879|
|           5|  7.9104e-01|  4.1768e-11|  2.7798e-03|  8.0000e-04|  8.0000e-04|  8.0000e-04|   -4.555210|   -4.737667|   -5.175576|   -5.175497|   -4.777303|  -12.476176|    3.501905|
|           6|  7.8553e-01|  4.1768e-11|  2.7798e-03|  8.0000e-04|  8.0000e-04|  8.0000e-04|   -4.555200|   -4.737678|   -5.175576|   -5.175496|   -4.777292|  -12.476168|    3.501930|
|           7|  7.7950e-01|  4.1768e-11|  2.7798e-03|  8.0000e-04|  8.0000e-04|  8.0000e-04|   -4.555189|   -4.737689|   -5.175575|   -5.175495|   -4.777281|  -12.476159|    3.501955|
|           8|  7.7857e-01|  4.1768e-11|  2.7798e-03|  8.0000e-04|  8.0000e-04|  8.0000e-04|   -4.555179|   -4.737701|   -5.175574|   -5.175494|   -4.777270|  -12.476151|    3.501980|
|           9|  7.7518e-01|  4.1768e-11|  2.7798e-03|  8.0000e-04|  8.0000e-04|  8.0000e-04|   -4.555168|   -4.737712|   -5.175573|   -5.175493|   -4.777259|  -12.476142|    3.502005|
|          10|  7.7595e-01|  4.1767e-11|  2.7798e-03|  8.0000e-04|  8.0000e-04|  8.0000e-04|   -4.555158|   -4.737723|   -5.175572|   -5.175493|   -4.777248|  -12.476133|    3.502030|
|          11|  7.7417e-01|  4.1767e-11|  2.7798e-03|  8.0000e-04|  8.0000e-04|  8.0000e-04|   -4.555147|   -4.737734|   -5.175571|   -5.175492|   -4.777238|  -12.476125|    3.502056|
|          12|  7.7082e-01|  4.1767e-11|  2.7798e-03|  8.0000e-04|  8.0000e-04|  8.0000e-04|   -4.555136|   -4.737745|   -5.175570|   -5.175491|   -4.777227|  -12.476116|    3.502081|
|          13|  7.7437e-01|  4.1767e-11|  2.7798e-03|  8.0000e-04|  8.0000e-04|  8.0000e-04|   -4.555126|   -4.737756|   -5.175569|   -5.175490|   -4.777216|  -12.476107|    3.502106|
|          14|  7.7103e-01|  4.1767e-11|  2.7798e-03|  8.0000e-04|  8.0000e-04|  8.0000e-04|   -4.555115|   -4.737767|   -5.175568|   -5.175489|   -4.777205|  -12.476098|    3.502131|
|          15|  7.6887e-01|  4.1767e-11|  2.7798e-03|  8.0000e-04|  8.0000e-04|  8.0000e-04|   -4.555105|   -4.737779|   -5.175567|   -5.175488|   -4.777194|  -12.476090|    3.502156|
|          16|  7.6615e-01|  4.1766e-11|  2.7798e-03|  8.0000e-04|  8.0000e-04|  8.0000e-04|   -4.555094|   -4.737790|   -5.175566|   -5.175487|   -4.777182|  -12.476081|    3.502182|
|          17|  7.6442e-01|  4.1766e-11|  2.7798e-03|  8.0000e-04|  8.0000e-04|  8.0000e-04|   -4.555083|   -4.737801|   -5.175565|   -5.175486|   -4.777171|  -12.476072|    3.502207|
|          18|  7.6230e-01|  4.1766e-11|  2.7798e-03|  8.0000e-04|  8.0000e-04|  8.0000e-04|   -4.555072|   -4.737812|   -5.175564|   -5.175485|   -4.777160|  -12.476063|    3.502232|
|          19|  7.6006e-01|  4.1766e-11|  2.7798e-03|  8.0000e-04|  8.0000e-04|  8.0000e-04|   -4.555062|   -4.737823|   -5.175563|   -5.175484|   -4.777149|  -12.476054|    3.502257|
|          20|  7.5881e-01|  4.1766e-11|  2.7798e-03|  8.0000e-04|  8.0000e-04|  8.0000e-04|   -4.555051|   -4.737835|   -5.175562|   -5.175483|   -4.777138|  -12.476045|    3.502283|
|          21|  7.5836e-01|  4.1765e-11|  2.7798e-03|  8.0000e-04|  8.0000e-04|  8.0000e-04|   -4.555040|   -4.737846|   -5.175561|   -5.175482|   -4.777127|  -12.476036|    3.502308|
|          22|  7.5675e-01|  4.1765e-11|  2.7798e-03|  8.0000e-04|  8.0000e-04|  8.0000e-04|   -4.555029|   -4.737857|   -5.175560|   -5.175481|   -4.777115|  -12.476027|    3.502333|
|          23|  7.5536e-01|  4.1765e-11|  2.7798e-03|  8.0000e-04|  8.0000e-04|  8.0000e-04|   -4.555019|   -4.737868|   -5.175558|   -5.175479|   -4.777104|  -12.476018|    3.502358|
|          24|  7.6058e-01|  4.1765e-11|  2.7798e-03|  8.0000e-04|  8.0000e-04|  8.0000e-04|   -4.555008|   -4.737879|   -5.175557|   -5.175478|   -4.777093|  -12.476009|    3.502384|
|          25|  7.5885e-01|  4.1765e-11|  2.7798e-03|  8.0000e-04|  8.0000e-04|  8.0000e-04|   -4.554997|   -4.737891|   -5.175556|   -5.175477|   -4.777081|  -12.476000|    3.502409|
|          26|  7.5679e-01|  4.1765e-11|  2.7798e-03|  8.0000e-04|  8.0000e-04|  8.0000e-04|   -4.554986|   -4.737902|   -5.175555|   -5.175476|   -4.777070|  -12.475991|    3.502434|
|          27|  7.5572e-01|  4.1764e-11|  2.7798e-03|  8.0000e-04|  8.0000e-04|  8.0000e-04|   -4.554975|   -4.737913|   -5.175554|   -5.175475|   -4.777059|  -12.475982|    3.502460|
|          28|  7.5394e-01|  4.1764e-11|  2.7798e-03|  8.0000e-04|  8.0000e-04|  8.0000e-04|   -4.554964|   -4.737924|   -5.175553|   -5.175474|   -4.777047|  -12.475973|    3.502485|
|          29|  7.5247e-01|  4.1764e-11|  2.7798e-03|  8.0000e-04|  8.0000e-04|  8.0000e-04|   -4.554953|   -4.737936|   -5.175551|   -5.175473|   -4.777036|  -12.475963|    3.502510|
|          30|  7.5088e-01|  4.1764e-11|  2.7798e-03|  8.0000e-04|  8.0000e-04|  8.0000e-04|   -4.554942|   -4.737947|   -5.175550|   -5.175471|   -4.777024|  -12.475954|    3.502536|
|          31|  7.4991e-01|  4.1764e-11|  2.7798e-03|  8.0000e-04|  8.0000e-04|  8.0000e-04|   -4.554931|   -4.737958|   -5.175549|   -5.175470|   -4.777013|  -12.475945|    3.502561|
|          32|  7.4875e-01|  4.1764e-11|  2.7798e-03|  8.0000e-04|  8.0000e-04|  8.0000e-04|   -4.554920|   -4.737969|   -5.175548|   -5.175469|   -4.777001|  -12.475936|    3.502586|
|          33|  7.4771e-01|  4.1763e-11|  2.7798e-03|  8.0000e-04|  8.0000e-04|  8.0000e-04|   -4.554909|   -4.737981|   -5.175546|   -5.175468|   -4.776990|  -12.475926|    3.502612|
|          34|  7.4654e-01|  4.1763e-11|  2.7798e-03|  8.0000e-04|  8.0000e-04|  8.0000e-04|   -4.554898|   -4.737992|   -5.175545|   -5.175466|   -4.776978|  -12.475917|    3.502637|
|          35|  7.4536e-01|  4.1763e-11|  2.7798e-03|  8.0000e-04|  8.0000e-04|  8.0000e-04|   -4.554887|   -4.738003|   -5.175544|   -5.175465|   -4.776966|  -12.475907|    3.502662|
|          36|  7.4421e-01|  4.1763e-11|  2.7798e-03|  8.0000e-04|  8.0000e-04|  8.0000e-04|   -4.554876|   -4.738014|   -5.175542|   -5.175464|   -4.776955|  -12.475898|    3.502688|
|          37|  7.4298e-01|  4.1763e-11|  2.7798e-03|  8.0000e-04|  8.0000e-04|  8.0000e-04|   -4.554865|   -4.738026|   -5.175541|   -5.175463|   -4.776943|  -12.475889|    3.502713|
|          38|  7.4175e-01|  4.1762e-11|  2.7798e-03|  8.0000e-04|  8.0000e-04|  8.0000e-04|   -4.554854|   -4.738037|   -5.175540|   -5.175461|   -4.776931|  -12.475879|    3.502738|
|          39|  7.4051e-01|  4.1762e-11|  2.7798e-03|  8.0000e-04|  8.0000e-04|  8.0000e-04|   -4.554843|   -4.738048|   -5.175538|   -5.175460|   -4.776920|  -12.475870|    3.502764|
|          40|  7.3986e-01|  4.1762e-11|  2.7798e-03|  8.0000e-04|  8.0000e-04|  8.0000e-04|   -4.554832|   -4.738060|   -5.175537|   -5.175459|   -4.776908|  -12.475860|    3.502789|
|          41|  7.3876e-01|  4.1762e-11|  2.7798e-03|  8.0000e-04|  8.0000e-04|  8.0000e-04|   -4.554820|   -4.738071|   -5.175535|   -5.175457|   -4.776896|  -12.475850|    3.502815|
|          42|  7.3792e-01|  4.1762e-11|  2.7798e-03|  8.0000e-04|  8.0000e-04|  8.0000e-04|   -4.554809|   -4.738082|   -5.175534|   -5.175456|   -4.776884|  -12.475841|    3.502840|
|          43|  7.3716e-01|  4.1762e-11|  2.7798e-03|  8.0000e-04|  8.0000e-04|  8.0000e-04|   -4.554798|   -4.738094|   -5.175533|   -5.175454|   -4.776872|  -12.475831|    3.502865|
|          44|  7.3701e-01|  4.1761e-11|  2.7798e-03|  8.0000e-04|  8.0000e-04|  8.0000e-04|   -4.554787|   -4.738105|   -5.175531|   -5.175453|   -4.776861|  -12.475821|    3.502891|
|          45|  7.3618e-01|  4.1761e-11|  2.7798e-03|  8.0000e-04|  8.0000e-04|  8.0000e-04|   -4.554775|   -4.738116|   -5.175530|   -5.175452|   -4.776849|  -12.475812|    3.502916|
|          46|  7.3551e-01|  4.1761e-11|  2.7798e-03|  8.0000e-04|  8.0000e-04|  8.0000e-04|   -4.554764|   -4.738128|   -5.175528|   -5.175450|   -4.776837|  -12.475802|    3.502942|
|          47|  7.3499e-01|  4.1761e-11|  2.7798e-03|  8.0000e-04|  8.0000e-04|  8.0000e-04|   -4.554753|   -4.738139|   -5.175527|   -5.175449|   -4.776825|  -12.475792|    3.502967|
|          48|  7.3422e-01|  4.1761e-11|  2.7798e-03|  8.0000e-04|  8.0000e-04|  8.0000e-04|   -4.554742|   -4.738150|   -5.175525|   -5.175447|   -4.776813|  -12.475782|    3.502992|
|          49|  7.3384e-01|  4.1761e-11|  2.7798e-03|  8.0000e-04|  8.0000e-04|  8.0000e-04|   -4.554730|   -4.738162|   -5.175524|   -5.175446|   -4.776801|  -12.475773|    3.503018|
|          50|  7.3334e-01|  4.1760e-11|  2.7798e-03|  8.0000e-04|  8.0000e-04|  8.0000e-04|   -4.554719|   -4.738173|   -5.175522|   -5.175444|   -4.776789|  -12.475763|    3.503043|
|          51|  7.3261e-01|  4.1760e-11|  2.7798e-03|  8.0000e-04|  8.0000e-04|  8.0000e-04|   -4.554707|   -4.738184|   -5.175521|   -5.175443|   -4.776776|  -12.475753|    3.503069|
|          52|  7.3214e-01|  4.1760e-11|  2.7798e-03|  8.0000e-04|  8.0000e-04|  8.0000e-04|   -4.554696|   -4.738196|   -5.175519|   -5.175441|   -4.776764|  -12.475743|    3.503094|
|          53|  7.3160e-01|  4.1760e-11|  2.7798e-03|  8.0000e-04|  8.0000e-04|  8.0000e-04|   -4.554685|   -4.738207|   -5.175517|   -5.175440|   -4.776752|  -12.475733|    3.503120|
|          54|  7.3108e-01|  4.1760e-11|  2.7798e-03|  8.0000e-04|  8.0000e-04|  8.0000e-04|   -4.554673|   -4.738218|   -5.175516|   -5.175438|   -4.776740|  -12.475723|    3.503145|
|          55|  7.3052e-01|  4.1759e-11|  2.7798e-03|  8.0000e-04|  8.0000e-04|  8.0000e-04|   -4.554662|   -4.738230|   -5.175514|   -5.175436|   -4.776728|  -12.475713|    3.503171|
|          56|  7.2990e-01|  4.1759e-11|  2.7798e-03|  8.0000e-04|  8.0000e-04|  8.0000e-04|   -4.554650|   -4.738241|   -5.175513|   -5.175435|   -4.776716|  -12.475703|    3.503196|
|          57|  7.2931e-01|  4.1759e-11|  2.7798e-03|  8.0000e-04|  8.0000e-04|  8.0000e-04|   -4.554639|   -4.738253|   -5.175511|   -5.175433|   -4.776703|  -12.475693|    3.503222|
|          58|  7.2891e-01|  4.1759e-11|  2.7798e-03|  8.0000e-04|  8.0000e-04|  8.0000e-04|   -4.554627|   -4.738264|   -5.175509|   -5.175432|   -4.776691|  -12.475683|    3.503247|
|          59|  7.2877e-01|  4.1759e-11|  2.7798e-03|  8.0000e-04|  8.0000e-04|  8.0000e-04|   -4.554616|   -4.738275|   -5.175508|   -5.175430|   -4.776679|  -12.475673|    3.503273|
|          60|  7.2832e-01|  4.1759e-11|  2.7798e-03|  8.0000e-04|  8.0000e-04|  8.0000e-04|   -4.554604|   -4.738287|   -5.175506|   -5.175428|   -4.776666|  -12.475663|    3.503298|
|          61|  7.2782e-01|  4.1758e-11|  2.7798e-03|  8.0000e-04|  8.0000e-04|  8.0000e-04|   -4.554592|   -4.738298|   -5.175504|   -5.175427|   -4.776654|  -12.475653|    3.503324|
|          62|  7.2732e-01|  4.1758e-11|  2.7798e-03|  8.0000e-04|  8.0000e-04|  8.0000e-04|   -4.554581|   -4.738310|   -5.175502|   -5.175425|   -4.776642|  -12.475642|    3.503349|
|          63|  7.2683e-01|  4.1758e-11|  2.7798e-03|  8.0000e-04|  8.0000e-04|  8.0000e-04|   -4.554569|   -4.738321|   -5.175501|   -5.175423|   -4.776629|  -12.475632|    3.503375|
|          64|  7.2635e-01|  4.1758e-11|  2.7798e-03|  8.0000e-04|  8.0000e-04|  8.0000e-04|   -4.554558|   -4.738333|   -5.175499|   -5.175422|   -4.776617|  -12.475622|    3.503400|
|          65|  7.2592e-01|  4.1758e-11|  2.7798e-03|  8.0000e-04|  8.0000e-04|  8.0000e-04|   -4.554546|   -4.738344|   -5.175497|   -5.175420|   -4.776604|  -12.475611|    3.503426|
|          66|  7.2551e-01|  4.1758e-11|  2.7798e-03|  8.0000e-04|  8.0000e-04|  8.0000e-04|   -4.554534|   -4.738355|   -5.175495|   -5.175418|   -4.776592|  -12.475601|    3.503452|
|          67|  7.2551e-01|  4.1757e-11|  2.7798e-03|  8.0000e-04|  8.0000e-04|  8.0000e-04|   -4.554522|   -4.738367|   -5.175494|   -5.175416|   -4.776579|  -12.475591|    3.503477|
|          68|  7.2511e-01|  4.1757e-11|  2.7798e-03|  8.0000e-04|  8.0000e-04|  8.0000e-04|   -4.554511|   -4.738378|   -5.175492|   -5.175415|   -4.776566|  -12.475580|    3.503503|
|          69|  7.2471e-01|  4.1757e-11|  2.7798e-03|  8.0000e-04|  8.0000e-04|  8.0000e-04|   -4.554499|   -4.738390|   -5.175490|   -5.175413|   -4.776554|  -12.475570|    3.503528|
|          70|  7.2442e-01|  4.1757e-11|  2.7798e-03|  8.0000e-04|  8.0000e-04|  8.0000e-04|   -4.554487|   -4.738401|   -5.175488|   -5.175411|   -4.776541|  -12.475560|    3.503554|
|          71|  7.2418e-01|  4.1757e-11|  2.7798e-03|  8.0000e-04|  8.0000e-04|  8.0000e-04|   -4.554475|   -4.738413|   -5.175486|   -5.175409|   -4.776529|  -12.475549|    3.503580|
|          72|  7.2410e-01|  4.1756e-11|  2.7798e-03|  8.0000e-04|  8.0000e-04|  8.0000e-04|   -4.554464|   -4.738424|   -5.175484|   -5.175407|   -4.776516|  -12.475539|    3.503605|
|          73|  7.2384e-01|  4.1756e-11|  2.7798e-03|  8.0000e-04|  8.0000e-04|  8.0000e-04|   -4.554452|   -4.738436|   -5.175483|   -5.175405|   -4.776503|  -12.475528|    3.503631|
|          74|  7.2358e-01|  4.1756e-11|  2.7798e-03|  8.0000e-04|  8.0000e-04|  8.0000e-04|   -4.554440|   -4.738447|   -5.175481|   -5.175404|   -4.776490|  -12.475518|    3.503656|
|          75|  7.2332e-01|  4.1756e-11|  2.7798e-03|  8.0000e-04|  8.0000e-04|  8.0000e-04|   -4.554428|   -4.738459|   -5.175479|   -5.175402|   -4.776478|  -12.475507|    3.503682|
|          76|  7.2303e-01|  4.1756e-11|  2.7798e-03|  8.0000e-04|  8.0000e-04|  8.0000e-04|   -4.554416|   -4.738470|   -5.175477|   -5.175400|   -4.776465|  -12.475496|    3.503708|
|          77|  7.2279e-01|  4.1756e-11|  2.7798e-03|  8.0000e-04|  8.0000e-04|  8.0000e-04|   -4.554404|   -4.738482|   -5.175475|   -5.175398|   -4.776452|  -12.475486|    3.503733|
|          78|  7.2262e-01|  4.1755e-11|  2.7798e-03|  8.0000e-04|  8.0000e-04|  8.0000e-04|   -4.554392|   -4.738493|   -5.175473|   -5.175396|   -4.776439|  -12.475475|    3.503759|
|          79|  7.2269e-01|  4.1755e-11|  2.7798e-03|  8.0000e-04|  8.0000e-04|  8.0000e-04|   -4.554380|   -4.738505|   -5.175471|   -5.175394|   -4.776426|  -12.475464|    3.503785|
|          80|  7.2256e-01|  4.1755e-11|  2.7798e-03|  8.0000e-04|  8.0000e-04|  8.0000e-04|   -4.554368|   -4.738516|   -5.175469|   -5.175392|   -4.776413|  -12.475454|    3.503810|
|          81|  7.2236e-01|  4.1755e-11|  2.7798e-03|  8.0000e-04|  8.0000e-04|  8.0000e-04|   -4.554356|   -4.738528|   -5.175467|   -5.175390|   -4.776400|  -12.475443|    3.503836|
|          82|  7.2211e-01|  4.1755e-11|  2.7798e-03|  8.0000e-04|  8.0000e-04|  8.0000e-04|   -4.554344|   -4.738539|   -5.175465|   -5.175388|   -4.776387|  -12.475432|    3.503862|
|          83|  7.2186e-01|  4.1755e-11|  2.7798e-03|  8.0000e-04|  8.0000e-04|  8.0000e-04|   -4.554332|   -4.738551|   -5.175463|   -5.175386|   -4.776374|  -12.475421|    3.503887|
|          84|  7.2173e-01|  4.1754e-11|  2.7798e-03|  8.0000e-04|  8.0000e-04|  8.0000e-04|   -4.554320|   -4.738562|   -5.175461|   -5.175384|   -4.776361|  -12.475410|    3.503913|
|          85|  7.2161e-01|  4.1754e-11|  2.7798e-03|  8.0000e-04|  8.0000e-04|  8.0000e-04|   -4.554308|   -4.738574|   -5.175459|   -5.175382|   -4.776348|  -12.475400|    3.503939|
|          86|  7.2143e-01|  4.1754e-11|  2.7798e-03|  8.0000e-04|  8.0000e-04|  8.0000e-04|   -4.554296|   -4.738585|   -5.175457|   -5.175380|   -4.776335|  -12.475389|    3.503964|
|          87|  7.2123e-01|  4.1754e-11|  2.7798e-03|  8.0000e-04|  8.0000e-04|  8.0000e-04|   -4.554284|   -4.738597|   -5.175455|   -5.175378|   -4.776322|  -12.475378|    3.503990|
|          88|  7.2108e-01|  4.1754e-11|  2.7798e-03|  8.0000e-04|  8.0000e-04|  8.0000e-04|   -4.554272|   -4.738609|   -5.175453|   -5.175376|   -4.776309|  -12.475367|    3.504016|
|          89|  7.2117e-01|  4.1753e-11|  2.7798e-03|  8.0000e-04|  8.0000e-04|  8.0000e-04|   -4.554260|   -4.738620|   -5.175450|   -5.175374|   -4.776296|  -12.475356|    3.504041|
|          90|  7.2103e-01|  4.1753e-11|  2.7798e-03|  8.0000e-04|  8.0000e-04|  8.0000e-04|   -4.554248|   -4.738632|   -5.175448|   -5.175372|   -4.776282|  -12.475345|    3.504067|
|          91|  7.2084e-01|  4.1753e-11|  2.7798e-03|  8.0000e-04|  8.0000e-04|  8.0000e-04|   -4.554236|   -4.738643|   -5.175446|   -5.175370|   -4.776269|  -12.475334|    3.504093|
|          92|  7.2063e-01|  4.1753e-11|  2.7798e-03|  8.0000e-04|  8.0000e-04|  8.0000e-04|   -4.554223|   -4.738655|   -5.175444|   -5.175367|   -4.776256|  -12.475322|    3.504119|
|          93|  7.2043e-01|  4.1753e-11|  2.7798e-03|  8.0000e-04|  8.0000e-04|  8.0000e-04|   -4.554211|   -4.738666|   -5.175442|   -5.175365|   -4.776243|  -12.475311|    3.504144|
|          94|  7.2030e-01|  4.1753e-11|  2.7798e-03|  8.0000e-04|  8.0000e-04|  8.0000e-04|   -4.554199|   -4.738678|   -5.175440|   -5.175363|   -4.776229|  -12.475300|    3.504170|
|          95|  7.2023e-01|  4.1752e-11|  2.7798e-03|  8.0000e-04|  8.0000e-04|  8.0000e-04|   -4.554187|   -4.738690|   -5.175437|   -5.175361|   -4.776216|  -12.475289|    3.504196|
|          96|  7.2013e-01|  4.1752e-11|  2.7798e-03|  8.0000e-04|  8.0000e-04|  8.0000e-04|   -4.554174|   -4.738701|   -5.175435|   -5.175359|   -4.776203|  -12.475278|    3.504222|
|          97|  7.2002e-01|  4.1752e-11|  2.7798e-03|  8.0000e-04|  8.0000e-04|  8.0000e-04|   -4.554162|   -4.738713|   -5.175433|   -5.175357|   -4.776189|  -12.475267|    3.504248|
|          98|  7.1985e-01|  4.1752e-11|  2.7798e-03|  8.0000e-04|  8.0000e-04|  8.0000e-04|   -4.554150|   -4.738724|   -5.175431|   -5.175354|   -4.776176|  -12.475255|    3.504273|
|          99|  7.1966e-01|  4.1752e-11|  2.7798e-03|  8.0000e-04|  8.0000e-04|  8.0000e-04|   -4.554137|   -4.738736|   -5.175428|   -5.175352|   -4.776162|  -12.475244|    3.504299|
|         100|  7.1953e-01|  4.1751e-11|  2.7798e-03|  8.0000e-04|  8.0000e-04|  8.0000e-04|   -4.554125|   -4.738748|   -5.175426|   -5.175350|   -4.776149|  -12.475233|    3.504325|
|         101|  7.1929e-01|  4.1751e-11|  2.7798e-03|  8.0000e-04|  8.0000e-04|  8.0000e-04|   -4.554113|   -4.738759|   -5.175424|   -5.175348|   -4.776135|  -12.475221|    3.504351|
|         102|  7.1914e-01|  4.1751e-11|  2.7798e-03|  8.0000e-04|  8.0000e-04|  8.0000e-04|   -4.554100|   -4.738771|   -5.175421|   -5.175345|   -4.776122|  -12.475210|    3.504376|
|         103|  7.1893e-01|  4.1751e-11|  2.7798e-03|  8.0000e-04|  8.0000e-04|  8.0000e-04|   -4.554088|   -4.738783|   -5.175419|   -5.175343|   -4.776108|  -12.475198|    3.504402|
|         104|  7.1870e-01|  4.1751e-11|  2.7798e-03|  8.0000e-04|  8.0000e-04|  8.0000e-04|   -4.554075|   -4.738794|   -5.175417|   -5.175341|   -4.776094|  -12.475187|    3.504428|
|         105|  7.1855e-01|  4.1751e-11|  2.7798e-03|  8.0000e-04|  8.0000e-04|  8.0000e-04|   -4.554063|   -4.738806|   -5.175414|   -5.175338|   -4.776081|  -12.475175|    3.504454|
|         106|  7.1833e-01|  4.1750e-11|  2.7798e-03|  8.0000e-04|  8.0000e-04|  8.0000e-04|   -4.554050|   -4.738818|   -5.175412|   -5.175336|   -4.776067|  -12.475164|    3.504480|
|         107|  7.1815e-01|  4.1750e-11|  2.7798e-03|  8.0000e-04|  8.0000e-04|  8.0000e-04|   -4.554038|   -4.738829|   -5.175410|   -5.175334|   -4.776053|  -12.475152|    3.504506|
|         108|  7.1797e-01|  4.1750e-11|  2.7798e-03|  8.0000e-04|  8.0000e-04|  8.0000e-04|   -4.554025|   -4.738841|   -5.175407|   -5.175331|   -4.776040|  -12.475141|    3.504532|
|         109|  7.1765e-01|  4.1750e-11|  2.7798e-03|  8.0000e-04|  8.0000e-04|  8.0000e-04|   -4.554013|   -4.738853|   -5.175405|   -5.175329|   -4.776026|  -12.475129|    3.504557|
|         110|  7.1732e-01|  4.1750e-11|  2.7798e-03|  8.0000e-04|  8.0000e-04|  8.0000e-04|   -4.554000|   -4.738864|   -5.175402|   -5.175326|   -4.776012|  -12.475118|    3.504583|
|         111|  7.1694e-01|  4.1750e-11|  2.7798e-03|  8.0000e-04|  8.0000e-04|  8.0000e-04|   -4.553988|   -4.738876|   -5.175400|   -5.175324|   -4.775998|  -12.475106|    3.504609|
|         112|  7.1679e-01|  4.1749e-11|  2.7798e-03|  8.0000e-04|  8.0000e-04|  8.0000e-04|   -4.553975|   -4.738888|   -5.175397|   -5.175322|   -4.775985|  -12.475094|    3.504635|
|         113|  7.1645e-01|  4.1749e-11|  2.7798e-03|  8.0000e-04|  8.0000e-04|  8.0000e-04|   -4.553962|   -4.738899|   -5.175395|   -5.175319|   -4.775971|  -12.475083|    3.504661|
|         114|  7.1611e-01|  4.1749e-11|  2.7798e-03|  8.0000e-04|  8.0000e-04|  8.0000e-04|   -4.553950|   -4.738911|   -5.175392|   -5.175317|   -4.775957|  -12.475071|    3.504687|
|         115|  7.1580e-01|  4.1749e-11|  2.7798e-03|  8.0000e-04|  8.0000e-04|  8.0000e-04|   -4.553937|   -4.738923|   -5.175390|   -5.175314|   -4.775943|  -12.475059|    3.504713|
|         116|  7.1551e-01|  4.1749e-11|  2.7798e-03|  8.0000e-04|  8.0000e-04|  8.0000e-04|   -4.553924|   -4.738934|   -5.175387|   -5.175312|   -4.775929|  -12.475047|    3.504739|
|         117|  7.1520e-01|  4.1748e-11|  2.7798e-03|  8.0000e-04|  8.0000e-04|  8.0000e-04|   -4.553912|   -4.738946|   -5.175385|   -5.175309|   -4.775915|  -12.475035|    3.504764|
|         118|  7.1491e-01|  4.1748e-11|  2.7798e-03|  8.0000e-04|  8.0000e-04|  8.0000e-04|   -4.553899|   -4.738958|   -5.175382|   -5.175307|   -4.775901|  -12.475024|    3.504790|
|         119|  7.1461e-01|  4.1748e-11|  2.7798e-03|  8.0000e-04|  8.0000e-04|  8.0000e-04|   -4.553886|   -4.738969|   -5.175380|   -5.175304|   -4.775887|  -12.475012|    3.504816|
|         120|  7.1427e-01|  4.1748e-11|  2.7798e-03|  8.0000e-04|  8.0000e-04|  8.0000e-04|   -4.553874|   -4.738981|   -5.175377|   -5.175302|   -4.775873|  -12.475000|    3.504842|
|         121|  7.1398e-01|  4.1748e-11|  2.7798e-03|  8.0000e-04|  8.0000e-04|  8.0000e-04|   -4.553861|   -4.738993|   -5.175375|   -5.175299|   -4.775859|  -12.474988|    3.504868|
|         122|  7.1368e-01|  4.1748e-11|  2.7798e-03|  8.0000e-04|  8.0000e-04|  8.0000e-04|   -4.553848|   -4.739005|   -5.175372|   -5.175296|   -4.775845|  -12.474976|    3.504894|
|         123|  7.1340e-01|  4.1747e-11|  2.7798e-03|  8.0000e-04|  8.0000e-04|  8.0000e-04|   -4.553835|   -4.739016|   -5.175369|   -5.175294|   -4.775830|  -12.474964|    3.504920|
|         124|  7.1309e-01|  4.1747e-11|  2.7798e-03|  8.0000e-04|  8.0000e-04|  8.0000e-04|   -4.553822|   -4.739028|   -5.175367|   -5.175291|   -4.775816|  -12.474952|    3.504946|
|         125|  7.1280e-01|  4.1747e-11|  2.7798e-03|  8.0000e-04|  8.0000e-04|  8.0000e-04|   -4.553810|   -4.739040|   -5.175364|   -5.175289|   -4.775802|  -12.474940|    3.504972|
|         126|  7.1254e-01|  4.1747e-11|  2.7798e-03|  8.0000e-04|  8.0000e-04|  8.0000e-04|   -4.553797|   -4.739052|   -5.175361|   -5.175286|   -4.775788|  -12.474928|    3.504998|
|         127|  7.1226e-01|  4.1747e-11|  2.7798e-03|  8.0000e-04|  8.0000e-04|  8.0000e-04|   -4.553784|   -4.739063|   -5.175359|   -5.175283|   -4.775774|  -12.474916|    3.505024|
|         128|  7.1202e-01|  4.1747e-11|  2.7798e-03|  8.0000e-04|  8.0000e-04|  8.0000e-04|   -4.553771|   -4.739075|   -5.175356|   -5.175281|   -4.775759|  -12.474903|    3.505050|
|         129|  7.1176e-01|  4.1746e-11|  2.7798e-03|  8.0000e-04|  8.0000e-04|  8.0000e-04|   -4.553758|   -4.739087|   -5.175353|   -5.175278|   -4.775745|  -12.474891|    3.505076|
|         130|  7.1148e-01|  4.1746e-11|  2.7798e-03|  8.0000e-04|  8.0000e-04|  8.0000e-04|   -4.553745|   -4.739099|   -5.175351|   -5.175275|   -4.775731|  -12.474879|    3.505102|
|         131|  7.1127e-01|  4.1746e-11|  2.7798e-03|  8.0000e-04|  8.0000e-04|  8.0000e-04|   -4.553732|   -4.739111|   -5.175348|   -5.175272|   -4.775716|  -12.474867|    3.505128|
|         132|  7.1102e-01|  4.1746e-11|  2.7798e-03|  8.0000e-04|  8.0000e-04|  8.0000e-04|   -4.553719|   -4.739122|   -5.175345|   -5.175270|   -4.775702|  -12.474855|    3.505154|
|         133|  7.1081e-01|  4.1746e-11|  2.7798e-03|  8.0000e-04|  8.0000e-04|  8.0000e-04|   -4.553706|   -4.739134|   -5.175342|   -5.175267|   -4.775687|  -12.474842|    3.505180|
|         134|  7.1057e-01|  4.1745e-11|  2.7798e-03|  8.0000e-04|  8.0000e-04|  8.0000e-04|   -4.553693|   -4.739146|   -5.175339|   -5.175264|   -4.775673|  -12.474830|    3.505206|
|         135|  7.1033e-01|  4.1745e-11|  2.7798e-03|  8.0000e-04|  8.0000e-04|  8.0000e-04|   -4.553680|   -4.739158|   -5.175337|   -5.175261|   -4.775658|  -12.474818|    3.505232|
|         136|  7.1011e-01|  4.1745e-11|  2.7798e-03|  8.0000e-04|  8.0000e-04|  8.0000e-04|   -4.553667|   -4.739169|   -5.175334|   -5.175259|   -4.775644|  -12.474805|    3.505258|
|         137|  7.1007e-01|  4.1745e-11|  2.7798e-03|  8.0000e-04|  8.0000e-04|  8.0000e-04|   -4.553654|   -4.739181|   -5.175331|   -5.175256|   -4.775629|  -12.474793|    3.505284|
|         138|  7.0997e-01|  4.1745e-11|  2.7798e-03|  8.0000e-04|  8.0000e-04|  8.0000e-04|   -4.553641|   -4.739193|   -5.175328|   -5.175253|   -4.775615|  -12.474780|    3.505310|
|         139|  7.0976e-01|  4.1745e-11|  2.7798e-03|  8.0000e-04|  8.0000e-04|  8.0000e-04|   -4.553628|   -4.739205|   -5.175325|   -5.175250|   -4.775600|  -12.474768|    3.505336|
|         140|  7.0951e-01|  4.1744e-11|  2.7798e-03|  8.0000e-04|  8.0000e-04|  8.0000e-04|   -4.553614|   -4.739217|   -5.175322|   -5.175247|   -4.775586|  -12.474756|    3.505362|
|         141|  7.0922e-01|  4.1744e-11|  2.7798e-03|  8.0000e-04|  8.0000e-04|  8.0000e-04|   -4.553601|   -4.739229|   -5.175320|   -5.175244|   -4.775571|  -12.474743|    3.505388|
|         142|  7.0899e-01|  4.1744e-11|  2.7798e-03|  8.0000e-04|  8.0000e-04|  8.0000e-04|   -4.553588|   -4.739240|   -5.175317|   -5.175242|   -4.775556|  -12.474730|    3.505414|
|         143|  7.0878e-01|  4.1744e-11|  2.7798e-03|  8.0000e-04|  8.0000e-04|  8.0000e-04|   -4.553575|   -4.739252|   -5.175314|   -5.175239|   -4.775542|  -12.474718|    3.505441|
|         144|  7.0852e-01|  4.1744e-11|  2.7798e-03|  8.0000e-04|  8.0000e-04|  8.0000e-04|   -4.553562|   -4.739264|   -5.175311|   -5.175236|   -4.775527|  -12.474705|    3.505467|
|         145|  7.0824e-01|  4.1744e-11|  2.7798e-03|  8.0000e-04|  8.0000e-04|  8.0000e-04|   -4.553549|   -4.739276|   -5.175308|   -5.175233|   -4.775512|  -12.474693|    3.505493|
|         146|  7.0790e-01|  4.1743e-11|  2.7798e-03|  8.0000e-04|  8.0000e-04|  8.0000e-04|   -4.553535|   -4.739288|   -5.175305|   -5.175230|   -4.775497|  -12.474680|    3.505519|
|         147|  7.0763e-01|  4.1743e-11|  2.7798e-03|  8.0000e-04|  8.0000e-04|  8.0000e-04|   -4.553522|   -4.739300|   -5.175302|   -5.175227|   -4.775482|  -12.474667|    3.505545|
|         148|  7.0741e-01|  4.1743e-11|  2.7798e-03|  8.0000e-04|  8.0000e-04|  8.0000e-04|   -4.553509|   -4.739312|   -5.175299|   -5.175224|   -4.775468|  -12.474655|    3.505571|
|         149|  7.0712e-01|  4.1743e-11|  2.7798e-03|  8.0000e-04|  8.0000e-04|  8.0000e-04|   -4.553495|   -4.739323|   -5.175296|   -5.175221|   -4.775453|  -12.474642|    3.505597|
|         150|  7.0680e-01|  4.1743e-11|  2.7798e-03|  8.0000e-04|  8.0000e-04|  8.0000e-04|   -4.553482|   -4.739335|   -5.175293|   -5.175218|   -4.775438|  -12.474629|    3.505623|
+-----------------------------------------------------------------------+
|        File Writing Summary       |              Filename             |
+-----------------------------------------------------------------------+
|SU2 binary restart                 |restart_flow.dat                   |
|Paraview                           |flow.vtu                           |
|Paraview surface                   |surface_flow.vtu                   |
+-----------------------------------------------------------------------+
+-------------------------------------------------------------------------------------------------------------------------------------------------------------------------------------+
|  Inner_Iter|   Time(sec)|      Min DT|      Max DT|     Min CFL|     Max CFL|     Avg CFL|    rms[Rho]|   rms[RhoU]|   rms[RhoV]|   rms[RhoW]|   rms[RhoE]|     rms[nu]|          CD|
+-------------------------------------------------------------------------------------------------------------------------------------------------------------------------------------+
|         151|  7.5836e-01|  4.1742e-11|  2.7798e-03|  8.0000e-04|  8.0000e-04|  8.0000e-04|   -4.553469|   -4.739347|   -5.175290|   -5.175215|   -4.775423|  -12.474616|    3.505650|
|         152|  7.5779e-01|  4.1742e-11|  2.7798e-03|  8.0000e-04|  8.0000e-04|  8.0000e-04|   -4.553455|   -4.739359|   -5.175287|   -5.175212|   -4.775408|  -12.474603|    3.505676|
|         153|  7.5715e-01|  4.1742e-11|  2.7798e-03|  8.0000e-04|  8.0000e-04|  8.0000e-04|   -4.553442|   -4.739371|   -5.175284|   -5.175209|   -4.775393|  -12.474591|    3.505702|
|         154|  7.5656e-01|  4.1742e-11|  2.7798e-03|  8.0000e-04|  8.0000e-04|  8.0000e-04|   -4.553429|   -4.739383|   -5.175281|   -5.175206|   -4.775378|  -12.474578|    3.505728|
|         155|  7.5607e-01|  4.1742e-11|  2.7798e-03|  8.0000e-04|  8.0000e-04|  8.0000e-04|   -4.553415|   -4.739395|   -5.175277|   -5.175203|   -4.775363|  -12.474565|    3.505754|
|         156|  7.5544e-01|  4.1742e-11|  2.7798e-03|  8.0000e-04|  8.0000e-04|  8.0000e-04|   -4.553402|   -4.739407|   -5.175274|   -5.175200|   -4.775348|  -12.474552|    3.505780|
|         157|  7.5484e-01|  4.1741e-11|  2.7798e-03|  8.0000e-04|  8.0000e-04|  8.0000e-04|   -4.553388|   -4.739419|   -5.175271|   -5.175197|   -4.775333|  -12.474539|    3.505806|
|         158|  7.5451e-01|  4.1741e-11|  2.7798e-03|  8.0000e-04|  8.0000e-04|  8.0000e-04|   -4.553375|   -4.739430|   -5.175268|   -5.175194|   -4.775318|  -12.474526|    3.505833|
|         159|  7.5403e-01|  4.1741e-11|  2.7798e-03|  8.0000e-04|  8.0000e-04|  8.0000e-04|   -4.553361|   -4.739442|   -5.175265|   -5.175190|   -4.775302|  -12.474513|    3.505859|
|         160|  7.5339e-01|  4.1741e-11|  2.7798e-03|  8.0000e-04|  8.0000e-04|  8.0000e-04|   -4.553348|   -4.739454|   -5.175262|   -5.175187|   -4.775287|  -12.474500|    3.505885|
|         161|  7.5289e-01|  4.1741e-11|  2.7798e-03|  8.0000e-04|  8.0000e-04|  8.0000e-04|   -4.553334|   -4.739466|   -5.175259|   -5.175184|   -4.775272|  -12.474486|    3.505911|
|         162|  7.5235e-01|  4.1741e-11|  2.7798e-03|  8.0000e-04|  8.0000e-04|  8.0000e-04|   -4.553321|   -4.739478|   -5.175255|   -5.175181|   -4.775257|  -12.474473|    3.505938|
|         163|  7.5185e-01|  4.1740e-11|  2.7798e-03|  8.0000e-04|  8.0000e-04|  8.0000e-04|   -4.553307|   -4.739490|   -5.175252|   -5.175178|   -4.775241|  -12.474460|    3.505964|
|         164|  7.5126e-01|  4.1740e-11|  2.7798e-03|  8.0000e-04|  8.0000e-04|  8.0000e-04|   -4.553293|   -4.739502|   -5.175249|   -5.175175|   -4.775226|  -12.474447|    3.505990|
|         165|  7.5078e-01|  4.1740e-11|  2.7798e-03|  8.0000e-04|  8.0000e-04|  8.0000e-04|   -4.553280|   -4.739514|   -5.175246|   -5.175171|   -4.775211|  -12.474434|    3.506016|
|         166|  7.5028e-01|  4.1740e-11|  2.7798e-03|  8.0000e-04|  8.0000e-04|  8.0000e-04|   -4.553266|   -4.739526|   -5.175242|   -5.175168|   -4.775196|  -12.474420|    3.506042|
|         167|  7.4982e-01|  4.1740e-11|  2.7798e-03|  8.0000e-04|  8.0000e-04|  8.0000e-04|   -4.553252|   -4.739538|   -5.175239|   -5.175165|   -4.775180|  -12.474407|    3.506069|
|         168|  7.4928e-01|  4.1739e-11|  2.7798e-03|  8.0000e-04|  8.0000e-04|  8.0000e-04|   -4.553239|   -4.739550|   -5.175236|   -5.175162|   -4.775165|  -12.474394|    3.506095|
|         169|  7.4878e-01|  4.1739e-11|  2.7798e-03|  8.0000e-04|  8.0000e-04|  8.0000e-04|   -4.553225|   -4.739562|   -5.175232|   -5.175158|   -4.775149|  -12.474380|    3.506121|
|         170|  7.4833e-01|  4.1739e-11|  2.7798e-03|  8.0000e-04|  8.0000e-04|  8.0000e-04|   -4.553211|   -4.739574|   -5.175229|   -5.175155|   -4.775134|  -12.474367|    3.506147|
|         171|  7.4790e-01|  4.1739e-11|  2.7798e-03|  8.0000e-04|  8.0000e-04|  8.0000e-04|   -4.553198|   -4.739586|   -5.175226|   -5.175152|   -4.775118|  -12.474354|    3.506174|
|         172|  7.4741e-01|  4.1739e-11|  2.7798e-03|  8.0000e-04|  8.0000e-04|  8.0000e-04|   -4.553184|   -4.739598|   -5.175222|   -5.175148|   -4.775103|  -12.474340|    3.506200|
|         173|  7.4694e-01|  4.1739e-11|  2.7798e-03|  8.0000e-04|  8.0000e-04|  8.0000e-04|   -4.553170|   -4.739610|   -5.175219|   -5.175145|   -4.775087|  -12.474327|    3.506226|
|         174|  7.4652e-01|  4.1738e-11|  2.7798e-03|  8.0000e-04|  8.0000e-04|  8.0000e-04|   -4.553156|   -4.739622|   -5.175216|   -5.175142|   -4.775072|  -12.474313|    3.506253|
|         175|  7.4610e-01|  4.1738e-11|  2.7798e-03|  8.0000e-04|  8.0000e-04|  8.0000e-04|   -4.553143|   -4.739634|   -5.175212|   -5.175138|   -4.775056|  -12.474300|    3.506279|
|         176|  7.4556e-01|  4.1738e-11|  2.7798e-03|  8.0000e-04|  8.0000e-04|  8.0000e-04|   -4.553129|   -4.739646|   -5.175209|   -5.175135|   -4.775040|  -12.474286|    3.506305|
|         177|  7.4506e-01|  4.1738e-11|  2.7798e-03|  8.0000e-04|  8.0000e-04|  8.0000e-04|   -4.553115|   -4.739658|   -5.175205|   -5.175131|   -4.775025|  -12.474273|    3.506332|
|         178|  7.4460e-01|  4.1738e-11|  2.7798e-03|  8.0000e-04|  8.0000e-04|  8.0000e-04|   -4.553101|   -4.739670|   -5.175202|   -5.175128|   -4.775009|  -12.474259|    3.506358|
|         179|  7.4423e-01|  4.1738e-11|  2.7798e-03|  8.0000e-04|  8.0000e-04|  8.0000e-04|   -4.553087|   -4.739682|   -5.175199|   -5.175125|   -4.774993|  -12.474245|    3.506384|
|         180|  7.4377e-01|  4.1737e-11|  2.7798e-03|  8.0000e-04|  8.0000e-04|  8.0000e-04|   -4.553073|   -4.739694|   -5.175195|   -5.175121|   -4.774978|  -12.474231|    3.506411|
|         181|  7.4330e-01|  4.1737e-11|  2.7798e-03|  8.0000e-04|  8.0000e-04|  8.0000e-04|   -4.553059|   -4.739706|   -5.175192|   -5.175118|   -4.774962|  -12.474218|    3.506437|
|         182|  7.4296e-01|  4.1737e-11|  2.7798e-03|  8.0000e-04|  8.0000e-04|  8.0000e-04|   -4.553045|   -4.739718|   -5.175188|   -5.175114|   -4.774946|  -12.474204|    3.506463|
|         183|  7.4248e-01|  4.1737e-11|  2.7798e-03|  8.0000e-04|  8.0000e-04|  8.0000e-04|   -4.553031|   -4.739730|   -5.175185|   -5.175111|   -4.774930|  -12.474190|    3.506490|
|         184|  7.4207e-01|  4.1737e-11|  2.7798e-03|  8.0000e-04|  8.0000e-04|  8.0000e-04|   -4.553017|   -4.739742|   -5.175181|   -5.175107|   -4.774914|  -12.474176|    3.506516|
|         185|  7.4164e-01|  4.1736e-11|  2.7798e-03|  8.0000e-04|  8.0000e-04|  8.0000e-04|   -4.553003|   -4.739754|   -5.175177|   -5.175104|   -4.774898|  -12.474163|    3.506542|
|         186|  7.4121e-01|  4.1736e-11|  2.7798e-03|  8.0000e-04|  8.0000e-04|  8.0000e-04|   -4.552989|   -4.739766|   -5.175174|   -5.175100|   -4.774883|  -12.474149|    3.506569|
|         187|  7.4077e-01|  4.1736e-11|  2.7798e-03|  8.0000e-04|  8.0000e-04|  8.0000e-04|   -4.552975|   -4.739778|   -5.175170|   -5.175097|   -4.774867|  -12.474135|    3.506595|
|         188|  7.4031e-01|  4.1736e-11|  2.7798e-03|  8.0000e-04|  8.0000e-04|  8.0000e-04|   -4.552961|   -4.739790|   -5.175167|   -5.175093|   -4.774851|  -12.474121|    3.506621|
|         189|  7.3987e-01|  4.1736e-11|  2.7798e-03|  8.0000e-04|  8.0000e-04|  8.0000e-04|   -4.552947|   -4.739802|   -5.175163|   -5.175089|   -4.774835|  -12.474107|    3.506648|
|         190|  7.3945e-01|  4.1736e-11|  2.7798e-03|  8.0000e-04|  8.0000e-04|  8.0000e-04|   -4.552933|   -4.739814|   -5.175159|   -5.175086|   -4.774819|  -12.474093|    3.506674|
|         191|  7.3915e-01|  4.1735e-11|  2.7798e-03|  8.0000e-04|  8.0000e-04|  8.0000e-04|   -4.552919|   -4.739826|   -5.175156|   -5.175082|   -4.774803|  -12.474079|    3.506701|
|         192|  7.3868e-01|  4.1735e-11|  2.7798e-03|  8.0000e-04|  8.0000e-04|  8.0000e-04|   -4.552905|   -4.739838|   -5.175152|   -5.175079|   -4.774786|  -12.474065|    3.506727|
|         193|  7.3825e-01|  4.1735e-11|  2.7798e-03|  8.0000e-04|  8.0000e-04|  8.0000e-04|   -4.552891|   -4.739850|   -5.175148|   -5.175075|   -4.774770|  -12.474051|    3.506754|
|         194|  7.3785e-01|  4.1735e-11|  2.7798e-03|  8.0000e-04|  8.0000e-04|  8.0000e-04|   -4.552876|   -4.739863|   -5.175145|   -5.175071|   -4.774754|  -12.474036|    3.506780|
|         195|  7.3753e-01|  4.1735e-11|  2.7798e-03|  8.0000e-04|  8.0000e-04|  8.0000e-04|   -4.552862|   -4.739875|   -5.175141|   -5.175068|   -4.774738|  -12.474022|    3.506806|
|         196|  7.3714e-01|  4.1735e-11|  2.7798e-03|  8.0000e-04|  8.0000e-04|  8.0000e-04|   -4.552848|   -4.739887|   -5.175137|   -5.175064|   -4.774722|  -12.474008|    3.506833|
|         197|  7.3673e-01|  4.1734e-11|  2.7798e-03|  8.0000e-04|  8.0000e-04|  8.0000e-04|   -4.552834|   -4.739899|   -5.175134|   -5.175060|   -4.774706|  -12.473994|    3.506859|
|         198|  7.3640e-01|  4.1734e-11|  2.7798e-03|  8.0000e-04|  8.0000e-04|  8.0000e-04|   -4.552820|   -4.739911|   -5.175130|   -5.175057|   -4.774689|  -12.473980|    3.506886|
|         199|  7.3602e-01|  4.1734e-11|  2.7798e-03|  8.0000e-04|  8.0000e-04|  8.0000e-04|   -4.552805|   -4.739923|   -5.175126|   -5.175053|   -4.774673|  -12.473965|    3.506912|
|         200|  7.3560e-01|  4.1734e-11|  2.7798e-03|  8.0000e-04|  8.0000e-04|  8.0000e-04|   -4.552791|   -4.739935|   -5.175122|   -5.175049|   -4.774657|  -12.473951|    3.506939|
|         201|  7.3517e-01|  4.1734e-11|  2.7798e-03|  8.0000e-04|  8.0000e-04|  8.0000e-04|   -4.552777|   -4.739947|   -5.175119|   -5.175045|   -4.774641|  -12.473937|    3.506965|
|         202|  7.3473e-01|  4.1733e-11|  2.7798e-03|  8.0000e-04|  8.0000e-04|  8.0000e-04|   -4.552762|   -4.739959|   -5.175115|   -5.175042|   -4.774624|  -12.473922|    3.506992|
|         203|  7.3447e-01|  4.1733e-11|  2.7798e-03|  8.0000e-04|  8.0000e-04|  8.0000e-04|   -4.552748|   -4.739971|   -5.175111|   -5.175038|   -4.774608|  -12.473908|    3.507018|
|         204|  7.3410e-01|  4.1733e-11|  2.7798e-03|  8.0000e-04|  8.0000e-04|  8.0000e-04|   -4.552734|   -4.739984|   -5.175107|   -5.175034|   -4.774591|  -12.473894|    3.507045|
|         205|  7.3373e-01|  4.1733e-11|  2.7798e-03|  8.0000e-04|  8.0000e-04|  8.0000e-04|   -4.552719|   -4.739996|   -5.175103|   -5.175030|   -4.774575|  -12.473879|    3.507071|
|         206|  7.3332e-01|  4.1733e-11|  2.7798e-03|  8.0000e-04|  8.0000e-04|  8.0000e-04|   -4.552705|   -4.740008|   -5.175099|   -5.175026|   -4.774559|  -12.473865|    3.507098|
|         207|  7.3307e-01|  4.1733e-11|  2.7798e-03|  8.0000e-04|  8.0000e-04|  8.0000e-04|   -4.552690|   -4.740020|   -5.175096|   -5.175022|   -4.774542|  -12.473850|    3.507124|
|         208|  7.3273e-01|  4.1732e-11|  2.7798e-03|  8.0000e-04|  8.0000e-04|  8.0000e-04|   -4.552676|   -4.740032|   -5.175092|   -5.175019|   -4.774525|  -12.473836|    3.507151|
|         209|  7.3239e-01|  4.1732e-11|  2.7798e-03|  8.0000e-04|  8.0000e-04|  8.0000e-04|   -4.552662|   -4.740044|   -5.175088|   -5.175015|   -4.774509|  -12.473821|    3.507177|
|         210|  7.3202e-01|  4.1732e-11|  2.7798e-03|  8.0000e-04|  8.0000e-04|  8.0000e-04|   -4.552647|   -4.740056|   -5.175084|   -5.175011|   -4.774492|  -12.473807|    3.507204|
|         211|  7.3172e-01|  4.1732e-11|  2.7798e-03|  8.0000e-04|  8.0000e-04|  8.0000e-04|   -4.552633|   -4.740069|   -5.175080|   -5.175007|   -4.774476|  -12.473792|    3.507230|
|         212|  7.3133e-01|  4.1732e-11|  2.7798e-03|  8.0000e-04|  8.0000e-04|  8.0000e-04|   -4.552618|   -4.740081|   -5.175076|   -5.175003|   -4.774459|  -12.473777|    3.507257|
|         213|  7.3096e-01|  4.1732e-11|  2.7798e-03|  8.0000e-04|  8.0000e-04|  8.0000e-04|   -4.552604|   -4.740093|   -5.175072|   -5.174999|   -4.774442|  -12.473763|    3.507283|
|         214|  7.3057e-01|  4.1731e-11|  2.7798e-03|  8.0000e-04|  8.0000e-04|  8.0000e-04|   -4.552589|   -4.740105|   -5.175068|   -5.174995|   -4.774426|  -12.473748|    3.507310|
|         215|  7.3018e-01|  4.1731e-11|  2.7798e-03|  8.0000e-04|  8.0000e-04|  8.0000e-04|   -4.552574|   -4.740117|   -5.175064|   -5.174991|   -4.774409|  -12.473733|    3.507336|
|         216|  7.2981e-01|  4.1731e-11|  2.7798e-03|  8.0000e-04|  8.0000e-04|  8.0000e-04|   -4.552560|   -4.740130|   -5.175060|   -5.174987|   -4.774392|  -12.473718|    3.507363|
|         217|  7.2946e-01|  4.1731e-11|  2.7798e-03|  8.0000e-04|  8.0000e-04|  8.0000e-04|   -4.552545|   -4.740142|   -5.175056|   -5.174983|   -4.774376|  -12.473704|    3.507390|
|         218|  7.2909e-01|  4.1731e-11|  2.7798e-03|  8.0000e-04|  8.0000e-04|  8.0000e-04|   -4.552531|   -4.740154|   -5.175052|   -5.174979|   -4.774359|  -12.473689|    3.507416|
|         219|  7.2874e-01|  4.1730e-11|  2.7798e-03|  8.0000e-04|  8.0000e-04|  8.0000e-04|   -4.552516|   -4.740166|   -5.175048|   -5.174975|   -4.774342|  -12.473674|    3.507443|
|         220|  7.2839e-01|  4.1730e-11|  2.7798e-03|  8.0000e-04|  8.0000e-04|  8.0000e-04|   -4.552501|   -4.740178|   -5.175044|   -5.174971|   -4.774325|  -12.473659|    3.507469|
|         221|  7.2807e-01|  4.1730e-11|  2.7798e-03|  8.0000e-04|  8.0000e-04|  8.0000e-04|   -4.552487|   -4.740191|   -5.175040|   -5.174967|   -4.774308|  -12.473644|    3.507496|
|         222|  7.2772e-01|  4.1730e-11|  2.7798e-03|  8.0000e-04|  8.0000e-04|  8.0000e-04|   -4.552472|   -4.740203|   -5.175036|   -5.174963|   -4.774291|  -12.473629|    3.507523|
|         223|  7.2738e-01|  4.1730e-11|  2.7798e-03|  8.0000e-04|  8.0000e-04|  8.0000e-04|   -4.552457|   -4.740215|   -5.175031|   -5.174959|   -4.774274|  -12.473614|    3.507549|
|         224|  7.2709e-01|  4.1730e-11|  2.7798e-03|  8.0000e-04|  8.0000e-04|  8.0000e-04|   -4.552443|   -4.740227|   -5.175027|   -5.174955|   -4.774257|  -12.473599|    3.507576|
|         225|  7.2675e-01|  4.1729e-11|  2.7798e-03|  8.0000e-04|  8.0000e-04|  8.0000e-04|   -4.552428|   -4.740239|   -5.175023|   -5.174951|   -4.774241|  -12.473584|    3.507603|
|         226|  7.2641e-01|  4.1729e-11|  2.7798e-03|  8.0000e-04|  8.0000e-04|  8.0000e-04|   -4.552413|   -4.740252|   -5.175019|   -5.174947|   -4.774224|  -12.473569|    3.507629|
|         227|  7.2606e-01|  4.1729e-11|  2.7798e-03|  8.0000e-04|  8.0000e-04|  8.0000e-04|   -4.552398|   -4.740264|   -5.175015|   -5.174942|   -4.774206|  -12.473554|    3.507656|
|         228|  7.2575e-01|  4.1729e-11|  2.7798e-03|  8.0000e-04|  8.0000e-04|  8.0000e-04|   -4.552383|   -4.740276|   -5.175011|   -5.174938|   -4.774189|  -12.473539|    3.507683|
|         229|  7.2545e-01|  4.1729e-11|  2.7798e-03|  8.0000e-04|  8.0000e-04|  8.0000e-04|   -4.552369|   -4.740288|   -5.175006|   -5.174934|   -4.774172|  -12.473524|    3.507709|
|         230|  7.2515e-01|  4.1728e-11|  2.7798e-03|  8.0000e-04|  8.0000e-04|  8.0000e-04|   -4.552354|   -4.740301|   -5.175002|   -5.174930|   -4.774155|  -12.473509|    3.507736|
|         231|  7.2482e-01|  4.1728e-11|  2.7798e-03|  8.0000e-04|  8.0000e-04|  8.0000e-04|   -4.552339|   -4.740313|   -5.174998|   -5.174926|   -4.774138|  -12.473493|    3.507763|
|         232|  7.2456e-01|  4.1728e-11|  2.7798e-03|  8.0000e-04|  8.0000e-04|  8.0000e-04|   -4.552324|   -4.740325|   -5.174994|   -5.174921|   -4.774121|  -12.473478|    3.507789|
|         233|  7.2425e-01|  4.1728e-11|  2.7798e-03|  8.0000e-04|  8.0000e-04|  8.0000e-04|   -4.552309|   -4.740337|   -5.174990|   -5.174917|   -4.774104|  -12.473463|    3.507816|
|         234|  7.2399e-01|  4.1728e-11|  2.7798e-03|  8.0000e-04|  8.0000e-04|  8.0000e-04|   -4.552294|   -4.740350|   -5.174985|   -5.174913|   -4.774086|  -12.473448|    3.507843|
|         235|  7.2388e-01|  4.1728e-11|  2.7798e-03|  8.0000e-04|  8.0000e-04|  8.0000e-04|   -4.552279|   -4.740362|   -5.174981|   -5.174909|   -4.774069|  -12.473432|    3.507869|
|         236|  7.2389e-01|  4.1727e-11|  2.7798e-03|  8.0000e-04|  8.0000e-04|  8.0000e-04|   -4.552264|   -4.740374|   -5.174977|   -5.174904|   -4.774052|  -12.473417|    3.507896|
|         237|  7.2358e-01|  4.1727e-11|  2.7798e-03|  8.0000e-04|  8.0000e-04|  8.0000e-04|   -4.552249|   -4.740386|   -5.174972|   -5.174900|   -4.774035|  -12.473402|    3.507923|
|         238|  7.2331e-01|  4.1727e-11|  2.7798e-03|  8.0000e-04|  8.0000e-04|  8.0000e-04|   -4.552234|   -4.740399|   -5.174968|   -5.174896|   -4.774017|  -12.473386|    3.507949|
|         239|  7.2310e-01|  4.1727e-11|  2.7798e-03|  8.0000e-04|  8.0000e-04|  8.0000e-04|   -4.552219|   -4.740411|   -5.174964|   -5.174892|   -4.774000|  -12.473371|    3.507976|
|         240|  7.2284e-01|  4.1727e-11|  2.7798e-03|  8.0000e-04|  8.0000e-04|  8.0000e-04|   -4.552204|   -4.740423|   -5.174959|   -5.174887|   -4.773983|  -12.473355|    3.508003|
|         241|  7.2255e-01|  4.1727e-11|  2.7798e-03|  8.0000e-04|  8.0000e-04|  8.0000e-04|   -4.552189|   -4.740436|   -5.174955|   -5.174883|   -4.773965|  -12.473340|    3.508030|
|         242|  7.2230e-01|  4.1726e-11|  2.7798e-03|  8.0000e-04|  8.0000e-04|  8.0000e-04|   -4.552174|   -4.740448|   -5.174951|   -5.174879|   -4.773948|  -12.473324|    3.508056|
|         243|  7.2200e-01|  4.1726e-11|  2.7798e-03|  8.0000e-04|  8.0000e-04|  8.0000e-04|   -4.552159|   -4.740460|   -5.174946|   -5.174874|   -4.773930|  -12.473309|    3.508083|
|         244|  7.2171e-01|  4.1726e-11|  2.7798e-03|  8.0000e-04|  8.0000e-04|  8.0000e-04|   -4.552144|   -4.740472|   -5.174942|   -5.174870|   -4.773913|  -12.473293|    3.508110|
|         245|  7.2146e-01|  4.1726e-11|  2.7798e-03|  8.0000e-04|  8.0000e-04|  8.0000e-04|   -4.552129|   -4.740485|   -5.174937|   -5.174865|   -4.773895|  -12.473278|    3.508137|
|         246|  7.2123e-01|  4.1726e-11|  2.7798e-03|  8.0000e-04|  8.0000e-04|  8.0000e-04|   -4.552114|   -4.740497|   -5.174933|   -5.174861|   -4.773878|  -12.473262|    3.508163|
|         247|  7.2095e-01|  4.1725e-11|  2.7798e-03|  8.0000e-04|  8.0000e-04|  8.0000e-04|   -4.552099|   -4.740509|   -5.174928|   -5.174857|   -4.773860|  -12.473246|    3.508190|
|         248|  7.2078e-01|  4.1725e-11|  2.7798e-03|  8.0000e-04|  8.0000e-04|  8.0000e-04|   -4.552083|   -4.740522|   -5.174924|   -5.174852|   -4.773842|  -12.473231|    3.508217|
|         249|  7.2052e-01|  4.1725e-11|  2.7798e-03|  8.0000e-04|  8.0000e-04|  8.0000e-04|   -4.552068|   -4.740534|   -5.174919|   -5.174848|   -4.773825|  -12.473215|    3.508244|
|         250|  7.2032e-01|  4.1725e-11|  2.7798e-03|  8.0000e-04|  8.0000e-04|  8.0000e-04|   -4.552053|   -4.740546|   -5.174915|   -5.174843|   -4.773807|  -12.473199|    3.508271|
|         251|  7.2009e-01|  4.1725e-11|  2.7798e-03|  8.0000e-04|  8.0000e-04|  8.0000e-04|   -4.552038|   -4.740559|   -5.174910|   -5.174839|   -4.773790|  -12.473183|    3.508297|
|         252|  7.1992e-01|  4.1725e-11|  2.7798e-03|  8.0000e-04|  8.0000e-04|  8.0000e-04|   -4.552022|   -4.740571|   -5.174906|   -5.174834|   -4.773772|  -12.473167|    3.508324|
|         253|  7.1970e-01|  4.1724e-11|  2.7798e-03|  8.0000e-04|  8.0000e-04|  8.0000e-04|   -4.552007|   -4.740583|   -5.174901|   -5.174830|   -4.773754|  -12.473151|    3.508351|
|         254|  7.1943e-01|  4.1724e-11|  2.7798e-03|  8.0000e-04|  8.0000e-04|  8.0000e-04|   -4.551992|   -4.740596|   -5.174897|   -5.174825|   -4.773736|  -12.473136|    3.508378|
|         255|  7.1916e-01|  4.1724e-11|  2.7798e-03|  8.0000e-04|  8.0000e-04|  8.0000e-04|   -4.551977|   -4.740608|   -5.174892|   -5.174821|   -4.773718|  -12.473120|    3.508405|
|         256|  7.1891e-01|  4.1724e-11|  2.7798e-03|  8.0000e-04|  8.0000e-04|  8.0000e-04|   -4.551961|   -4.740621|   -5.174888|   -5.174816|   -4.773701|  -12.473104|    3.508432|
|         257|  7.1867e-01|  4.1724e-11|  2.7798e-03|  8.0000e-04|  8.0000e-04|  8.0000e-04|   -4.551946|   -4.740633|   -5.174883|   -5.174811|   -4.773683|  -12.473088|    3.508458|
|         258|  7.1845e-01|  4.1724e-11|  2.7798e-03|  8.0000e-04|  8.0000e-04|  8.0000e-04|   -4.551931|   -4.740645|   -5.174878|   -5.174807|   -4.773665|  -12.473072|    3.508485|
|         259|  7.1819e-01|  4.1723e-11|  2.7798e-03|  8.0000e-04|  8.0000e-04|  8.0000e-04|   -4.551915|   -4.740658|   -5.174874|   -5.174802|   -4.773647|  -12.473056|    3.508512|
|         260|  7.1799e-01|  4.1723e-11|  2.7798e-03|  8.0000e-04|  8.0000e-04|  8.0000e-04|   -4.551900|   -4.740670|   -5.174869|   -5.174798|   -4.773629|  -12.473040|    3.508539|
|         261|  7.1777e-01|  4.1723e-11|  2.7798e-03|  8.0000e-04|  8.0000e-04|  8.0000e-04|   -4.551884|   -4.740682|   -5.174864|   -5.174793|   -4.773611|  -12.473024|    3.508566|
|         262|  7.1753e-01|  4.1723e-11|  2.7798e-03|  8.0000e-04|  8.0000e-04|  8.0000e-04|   -4.551869|   -4.740695|   -5.174860|   -5.174788|   -4.773593|  -12.473007|    3.508593|
|         263|  7.1731e-01|  4.1723e-11|  2.7798e-03|  8.0000e-04|  8.0000e-04|  8.0000e-04|   -4.551853|   -4.740707|   -5.174855|   -5.174784|   -4.773575|  -12.472991|    3.508620|
|         264|  7.1708e-01|  4.1722e-11|  2.7798e-03|  8.0000e-04|  8.0000e-04|  8.0000e-04|   -4.551838|   -4.740720|   -5.174850|   -5.174779|   -4.773557|  -12.472975|    3.508647|
|         265|  7.1685e-01|  4.1722e-11|  2.7798e-03|  8.0000e-04|  8.0000e-04|  8.0000e-04|   -4.551822|   -4.740732|   -5.174846|   -5.174774|   -4.773539|  -12.472959|    3.508673|
|         266|  7.1661e-01|  4.1722e-11|  2.7798e-03|  8.0000e-04|  8.0000e-04|  8.0000e-04|   -4.551807|   -4.740744|   -5.174841|   -5.174769|   -4.773521|  -12.472943|    3.508700|
|         267|  7.1639e-01|  4.1722e-11|  2.7798e-03|  8.0000e-04|  8.0000e-04|  8.0000e-04|   -4.551791|   -4.740757|   -5.174836|   -5.174765|   -4.773503|  -12.472926|    3.508727|
|         268|  7.1617e-01|  4.1722e-11|  2.7798e-03|  8.0000e-04|  8.0000e-04|  8.0000e-04|   -4.551776|   -4.740769|   -5.174831|   -5.174760|   -4.773485|  -12.472910|    3.508754|
|         269|  7.1601e-01|  4.1722e-11|  2.7798e-03|  8.0000e-04|  8.0000e-04|  8.0000e-04|   -4.551760|   -4.740782|   -5.174826|   -5.174755|   -4.773467|  -12.472894|    3.508781|
|         270|  7.1580e-01|  4.1721e-11|  2.7798e-03|  8.0000e-04|  8.0000e-04|  8.0000e-04|   -4.551745|   -4.740794|   -5.174822|   -5.174750|   -4.773448|  -12.472877|    3.508808|
|         271|  7.1557e-01|  4.1721e-11|  2.7798e-03|  8.0000e-04|  8.0000e-04|  8.0000e-04|   -4.551729|   -4.740806|   -5.174817|   -5.174746|   -4.773430|  -12.472861|    3.508835|
|         272|  7.1549e-01|  4.1721e-11|  2.7798e-03|  8.0000e-04|  8.0000e-04|  8.0000e-04|   -4.551714|   -4.740819|   -5.174812|   -5.174741|   -4.773412|  -12.472845|    3.508862|
|         273|  7.1528e-01|  4.1721e-11|  2.7798e-03|  8.0000e-04|  8.0000e-04|  8.0000e-04|   -4.551698|   -4.740831|   -5.174807|   -5.174736|   -4.773394|  -12.472828|    3.508889|
|         274|  7.1509e-01|  4.1721e-11|  2.7798e-03|  8.0000e-04|  8.0000e-04|  8.0000e-04|   -4.551682|   -4.740844|   -5.174802|   -5.174731|   -4.773375|  -12.472812|    3.508916|
|         275|  7.1490e-01|  4.1721e-11|  2.7798e-03|  8.0000e-04|  8.0000e-04|  8.0000e-04|   -4.551667|   -4.740856|   -5.174797|   -5.174726|   -4.773357|  -12.472795|    3.508943|
|         276|  7.1469e-01|  4.1720e-11|  2.7798e-03|  8.0000e-04|  8.0000e-04|  8.0000e-04|   -4.551651|   -4.740869|   -5.174793|   -5.174722|   -4.773339|  -12.472779|    3.508970|
|         277|  7.1446e-01|  4.1720e-11|  2.7798e-03|  8.0000e-04|  8.0000e-04|  8.0000e-04|   -4.551635|   -4.740881|   -5.174788|   -5.174717|   -4.773320|  -12.472762|    3.508997|
|         278|  7.1425e-01|  4.1720e-11|  2.7798e-03|  8.0000e-04|  8.0000e-04|  8.0000e-04|   -4.551619|   -4.740894|   -5.174783|   -5.174712|   -4.773302|  -12.472746|    3.509024|
|         279|  7.1405e-01|  4.1720e-11|  2.7798e-03|  8.0000e-04|  8.0000e-04|  8.0000e-04|   -4.551604|   -4.740906|   -5.174778|   -5.174707|   -4.773283|  -12.472729|    3.509051|
|         280|  7.1385e-01|  4.1720e-11|  2.7798e-03|  8.0000e-04|  8.0000e-04|  8.0000e-04|   -4.551588|   -4.740918|   -5.174773|   -5.174702|   -4.773265|  -12.472712|    3.509078|
|         281|  7.1364e-01|  4.1719e-11|  2.7798e-03|  8.0000e-04|  8.0000e-04|  8.0000e-04|   -4.551572|   -4.740931|   -5.174768|   -5.174697|   -4.773247|  -12.472696|    3.509105|
|         282|  7.1343e-01|  4.1719e-11|  2.7798e-03|  8.0000e-04|  8.0000e-04|  8.0000e-04|   -4.551556|   -4.740943|   -5.174763|   -5.174692|   -4.773228|  -12.472679|    3.509132|
|         283|  7.1334e-01|  4.1719e-11|  2.7798e-03|  8.0000e-04|  8.0000e-04|  8.0000e-04|   -4.551541|   -4.740956|   -5.174758|   -5.174687|   -4.773209|  -12.472662|    3.509159|
|         284|  7.1316e-01|  4.1719e-11|  2.7798e-03|  8.0000e-04|  8.0000e-04|  8.0000e-04|   -4.551525|   -4.740968|   -5.174753|   -5.174682|   -4.773191|  -12.472645|    3.509186|
|         285|  7.1300e-01|  4.1719e-11|  2.7798e-03|  8.0000e-04|  8.0000e-04|  8.0000e-04|   -4.551509|   -4.740981|   -5.174748|   -5.174677|   -4.773172|  -12.472629|    3.509213|
|         286|  7.1279e-01|  4.1719e-11|  2.7798e-03|  8.0000e-04|  8.0000e-04|  8.0000e-04|   -4.551493|   -4.740993|   -5.174743|   -5.174672|   -4.773154|  -12.472612|    3.509240|
|         287|  7.1261e-01|  4.1718e-11|  2.7798e-03|  8.0000e-04|  8.0000e-04|  8.0000e-04|   -4.551477|   -4.741006|   -5.174738|   -5.174667|   -4.773135|  -12.472595|    3.509267|
|         288|  7.1242e-01|  4.1718e-11|  2.7798e-03|  8.0000e-04|  8.0000e-04|  8.0000e-04|   -4.551461|   -4.741018|   -5.174733|   -5.174662|   -4.773116|  -12.472578|    3.509294|
|         289|  7.1222e-01|  4.1718e-11|  2.7798e-03|  8.0000e-04|  8.0000e-04|  8.0000e-04|   -4.551445|   -4.741031|   -5.174728|   -5.174657|   -4.773098|  -12.472561|    3.509321|
|         290|  7.1205e-01|  4.1718e-11|  2.7798e-03|  8.0000e-04|  8.0000e-04|  8.0000e-04|   -4.551429|   -4.741043|   -5.174723|   -5.174652|   -4.773079|  -12.472544|    3.509348|
|         291|  7.1186e-01|  4.1718e-11|  2.7798e-03|  8.0000e-04|  8.0000e-04|  8.0000e-04|   -4.551413|   -4.741056|   -5.174717|   -5.174647|   -4.773060|  -12.472527|    3.509375|
|         292|  7.1168e-01|  4.1718e-11|  2.7798e-03|  8.0000e-04|  8.0000e-04|  8.0000e-04|   -4.551397|   -4.741068|   -5.174712|   -5.174642|   -4.773041|  -12.472510|    3.509402|
|         293|  7.1149e-01|  4.1717e-11|  2.7798e-03|  8.0000e-04|  8.0000e-04|  8.0000e-04|   -4.551381|   -4.741081|   -5.174707|   -5.174637|   -4.773023|  -12.472493|    3.509429|
|         294|  7.1130e-01|  4.1717e-11|  2.7798e-03|  8.0000e-04|  8.0000e-04|  8.0000e-04|   -4.551365|   -4.741093|   -5.174702|   -5.174632|   -4.773004|  -12.472476|    3.509456|
|         295|  7.1123e-01|  4.1717e-11|  2.7798e-03|  8.0000e-04|  8.0000e-04|  8.0000e-04|   -4.551349|   -4.741106|   -5.174697|   -5.174627|   -4.772985|  -12.472459|    3.509483|
|         296|  7.1105e-01|  4.1717e-11|  2.7798e-03|  8.0000e-04|  8.0000e-04|  8.0000e-04|   -4.551333|   -4.741118|   -5.174692|   -5.174621|   -4.772966|  -12.472442|    3.509511|
|         297|  7.1088e-01|  4.1717e-11|  2.7798e-03|  8.0000e-04|  8.0000e-04|  8.0000e-04|   -4.551317|   -4.741131|   -5.174687|   -5.174616|   -4.772947|  -12.472425|    3.509538|
|         298|  7.1067e-01|  4.1716e-11|  2.7798e-03|  8.0000e-04|  8.0000e-04|  8.0000e-04|   -4.551301|   -4.741143|   -5.174681|   -5.174611|   -4.772928|  -12.472408|    3.509565|
|         299|  7.1051e-01|  4.1716e-11|  2.7798e-03|  8.0000e-04|  8.0000e-04|  8.0000e-04|   -4.551285|   -4.741156|   -5.174676|   -5.174606|   -4.772909|  -12.472391|    3.509592|
|         300|  7.1036e-01|  4.1716e-11|  2.7798e-03|  8.0000e-04|  8.0000e-04|  8.0000e-04|   -4.551269|   -4.741168|   -5.174671|   -5.174601|   -4.772890|  -12.472373|    3.509619|
+-----------------------------------------------------------------------+
|        File Writing Summary       |              Filename             |
+-----------------------------------------------------------------------+
|SU2 binary restart                 |restart_flow.dat                   |
|Paraview                           |flow.vtu                           |
|Paraview surface                   |surface_flow.vtu                   |
+-----------------------------------------------------------------------+
+-------------------------------------------------------------------------------------------------------------------------------------------------------------------------------------+
|  Inner_Iter|   Time(sec)|      Min DT|      Max DT|     Min CFL|     Max CFL|     Avg CFL|    rms[Rho]|   rms[RhoU]|   rms[RhoV]|   rms[RhoW]|   rms[RhoE]|     rms[nu]|          CD|
+-------------------------------------------------------------------------------------------------------------------------------------------------------------------------------------+
|         301|  7.3474e-01|  4.1716e-11|  2.7798e-03|  8.0000e-04|  8.0000e-04|  8.0000e-04|   -4.551253|   -4.741181|   -5.174666|   -5.174595|   -4.772871|  -12.472356|    3.509646|
|         302|  7.3453e-01|  4.1716e-11|  2.7798e-03|  8.0000e-04|  8.0000e-04|  8.0000e-04|   -4.551237|   -4.741194|   -5.174660|   -5.174590|   -4.772852|  -12.472339|    3.509673|
|         303|  7.3430e-01|  4.1716e-11|  2.7798e-03|  8.0000e-04|  8.0000e-04|  8.0000e-04|   -4.551220|   -4.741206|   -5.174655|   -5.174585|   -4.772833|  -12.472322|    3.509701|
|         304|  7.3422e-01|  4.1715e-11|  2.7798e-03|  8.0000e-04|  8.0000e-04|  8.0000e-04|   -4.551204|   -4.741219|   -5.174650|   -5.174580|   -4.772814|  -12.472304|    3.509728|
|         305|  7.3397e-01|  4.1715e-11|  2.7798e-03|  8.0000e-04|  8.0000e-04|  8.0000e-04|   -4.551188|   -4.741231|   -5.174644|   -5.174574|   -4.772795|  -12.472287|    3.509755|
|         306|  7.3374e-01|  4.1715e-11|  2.7798e-03|  8.0000e-04|  8.0000e-04|  8.0000e-04|   -4.551172|   -4.741244|   -5.174639|   -5.174569|   -4.772776|  -12.472270|    3.509782|
|         307|  7.3352e-01|  4.1715e-11|  2.7798e-03|  8.0000e-04|  8.0000e-04|  8.0000e-04|   -4.551156|   -4.741256|   -5.174634|   -5.174564|   -4.772757|  -12.472252|    3.509809|
|         308|  7.3334e-01|  4.1715e-11|  2.7798e-03|  8.0000e-04|  8.0000e-04|  8.0000e-04|   -4.551139|   -4.741269|   -5.174628|   -5.174559|   -4.772738|  -12.472235|    3.509836|
|         309|  7.3312e-01|  4.1715e-11|  2.7798e-03|  8.0000e-04|  8.0000e-04|  8.0000e-04|   -4.551123|   -4.741282|   -5.174623|   -5.174553|   -4.772718|  -12.472217|    3.509864|
|         310|  7.3295e-01|  4.1714e-11|  2.7798e-03|  8.0000e-04|  8.0000e-04|  8.0000e-04|   -4.551107|   -4.741294|   -5.174618|   -5.174548|   -4.772699|  -12.472200|    3.509891|
|         311|  7.3273e-01|  4.1714e-11|  2.7798e-03|  8.0000e-04|  8.0000e-04|  8.0000e-04|   -4.551090|   -4.741307|   -5.174612|   -5.174542|   -4.772680|  -12.472182|    3.509918|
|         312|  7.3255e-01|  4.1714e-11|  2.7798e-03|  8.0000e-04|  8.0000e-04|  8.0000e-04|   -4.551074|   -4.741319|   -5.174607|   -5.174537|   -4.772660|  -12.472165|    3.509945|
|         313|  7.3233e-01|  4.1714e-11|  2.7798e-03|  8.0000e-04|  8.0000e-04|  8.0000e-04|   -4.551058|   -4.741332|   -5.174601|   -5.174532|   -4.772641|  -12.472147|    3.509972|
|         314|  7.3210e-01|  4.1714e-11|  2.7798e-03|  8.0000e-04|  8.0000e-04|  8.0000e-04|   -4.551041|   -4.741344|   -5.174596|   -5.174526|   -4.772622|  -12.472129|    3.510000|
|         315|  7.3190e-01|  4.1713e-11|  2.7798e-03|  8.0000e-04|  8.0000e-04|  8.0000e-04|   -4.551025|   -4.741357|   -5.174591|   -5.174521|   -4.772602|  -12.472112|    3.510027|
|         316|  7.3170e-01|  4.1713e-11|  2.7798e-03|  8.0000e-04|  8.0000e-04|  8.0000e-04|   -4.551009|   -4.741370|   -5.174585|   -5.174515|   -4.772583|  -12.472094|    3.510054|
|         317|  7.3150e-01|  4.1713e-11|  2.7798e-03|  8.0000e-04|  8.0000e-04|  8.0000e-04|   -4.550992|   -4.741382|   -5.174580|   -5.174510|   -4.772564|  -12.472076|    3.510081|
|         318|  7.3126e-01|  4.1713e-11|  2.7798e-03|  8.0000e-04|  8.0000e-04|  8.0000e-04|   -4.550976|   -4.741395|   -5.174574|   -5.174505|   -4.772544|  -12.472059|    3.510109|
|         319|  7.3113e-01|  4.1713e-11|  2.7798e-03|  8.0000e-04|  8.0000e-04|  8.0000e-04|   -4.550959|   -4.741407|   -5.174569|   -5.174499|   -4.772525|  -12.472041|    3.510136|
|         320|  7.3101e-01|  4.1713e-11|  2.7798e-03|  8.0000e-04|  8.0000e-04|  8.0000e-04|   -4.550943|   -4.741420|   -5.174563|   -5.174494|   -4.772505|  -12.472023|    3.510163|
|         321|  7.3081e-01|  4.1712e-11|  2.7798e-03|  8.0000e-04|  8.0000e-04|  8.0000e-04|   -4.550926|   -4.741433|   -5.174558|   -5.174488|   -4.772486|  -12.472005|    3.510190|
|         322|  7.3060e-01|  4.1712e-11|  2.7798e-03|  8.0000e-04|  8.0000e-04|  8.0000e-04|   -4.550910|   -4.741445|   -5.174552|   -5.174483|   -4.772466|  -12.471987|    3.510218|
|         323|  7.3038e-01|  4.1712e-11|  2.7798e-03|  8.0000e-04|  8.0000e-04|  8.0000e-04|   -4.550893|   -4.741458|   -5.174546|   -5.174477|   -4.772446|  -12.471969|    3.510245|
|         324|  7.3019e-01|  4.1712e-11|  2.7798e-03|  8.0000e-04|  8.0000e-04|  8.0000e-04|   -4.550877|   -4.741471|   -5.174541|   -5.174471|   -4.772427|  -12.471951|    3.510272|
|         325|  7.3000e-01|  4.1712e-11|  2.7798e-03|  8.0000e-04|  8.0000e-04|  8.0000e-04|   -4.550860|   -4.741483|   -5.174535|   -5.174466|   -4.772407|  -12.471934|    3.510299|
|         326|  7.2987e-01|  4.1712e-11|  2.7798e-03|  8.0000e-04|  8.0000e-04|  8.0000e-04|   -4.550844|   -4.741496|   -5.174530|   -5.174460|   -4.772388|  -12.471916|    3.510327|
|         327|  7.2964e-01|  4.1711e-11|  2.7798e-03|  8.0000e-04|  8.0000e-04|  8.0000e-04|   -4.550827|   -4.741509|   -5.174524|   -5.174455|   -4.772368|  -12.471898|    3.510354|
|         328|  7.2941e-01|  4.1711e-11|  2.7798e-03|  8.0000e-04|  8.0000e-04|  8.0000e-04|   -4.550810|   -4.741521|   -5.174518|   -5.174449|   -4.772348|  -12.471880|    3.510381|
|         329|  7.2921e-01|  4.1711e-11|  2.7798e-03|  8.0000e-04|  8.0000e-04|  8.0000e-04|   -4.550794|   -4.741534|   -5.174513|   -5.174443|   -4.772328|  -12.471861|    3.510409|
|         330|  7.2902e-01|  4.1711e-11|  2.7798e-03|  8.0000e-04|  8.0000e-04|  8.0000e-04|   -4.550777|   -4.741547|   -5.174507|   -5.174438|   -4.772309|  -12.471843|    3.510436|
|         331|  7.2879e-01|  4.1711e-11|  2.7798e-03|  8.0000e-04|  8.0000e-04|  8.0000e-04|   -4.550760|   -4.741559|   -5.174501|   -5.174432|   -4.772289|  -12.471825|    3.510463|
|         332|  7.2857e-01|  4.1710e-11|  2.7798e-03|  8.0000e-04|  8.0000e-04|  8.0000e-04|   -4.550744|   -4.741572|   -5.174496|   -5.174426|   -4.772269|  -12.471807|    3.510491|
|         333|  7.2837e-01|  4.1710e-11|  2.7798e-03|  8.0000e-04|  8.0000e-04|  8.0000e-04|   -4.550727|   -4.741585|   -5.174490|   -5.174421|   -4.772249|  -12.471789|    3.510518|
|         334|  7.2817e-01|  4.1710e-11|  2.7798e-03|  8.0000e-04|  8.0000e-04|  8.0000e-04|   -4.550710|   -4.741597|   -5.174484|   -5.174415|   -4.772229|  -12.471771|    3.510545|
|         335|  7.2798e-01|  4.1710e-11|  2.7798e-03|  8.0000e-04|  8.0000e-04|  8.0000e-04|   -4.550694|   -4.741610|   -5.174479|   -5.174409|   -4.772209|  -12.471752|    3.510573|
|         336|  7.2775e-01|  4.1710e-11|  2.7798e-03|  8.0000e-04|  8.0000e-04|  8.0000e-04|   -4.550677|   -4.741623|   -5.174473|   -5.174404|   -4.772190|  -12.471734|    3.510600|
|         337|  7.2759e-01|  4.1710e-11|  2.7798e-03|  8.0000e-04|  8.0000e-04|  8.0000e-04|   -4.550660|   -4.741635|   -5.174467|   -5.174398|   -4.772170|  -12.471716|    3.510627|
|         338|  7.2740e-01|  4.1709e-11|  2.7798e-03|  8.0000e-04|  8.0000e-04|  8.0000e-04|   -4.550643|   -4.741648|   -5.174461|   -5.174392|   -4.772150|  -12.471697|    3.510655|
|         339|  7.2719e-01|  4.1709e-11|  2.7798e-03|  8.0000e-04|  8.0000e-04|  8.0000e-04|   -4.550626|   -4.741661|   -5.174455|   -5.174386|   -4.772130|  -12.471679|    3.510682|
|         340|  7.2699e-01|  4.1709e-11|  2.7798e-03|  8.0000e-04|  8.0000e-04|  8.0000e-04|   -4.550610|   -4.741673|   -5.174450|   -5.174381|   -4.772110|  -12.471661|    3.510710|
|         341|  7.2679e-01|  4.1709e-11|  2.7798e-03|  8.0000e-04|  8.0000e-04|  8.0000e-04|   -4.550593|   -4.741686|   -5.174444|   -5.174375|   -4.772090|  -12.471642|    3.510737|
|         342|  7.2658e-01|  4.1709e-11|  2.7798e-03|  8.0000e-04|  8.0000e-04|  8.0000e-04|   -4.550576|   -4.741699|   -5.174438|   -5.174369|   -4.772069|  -12.471624|    3.510764|
|         343|  7.2639e-01|  4.1709e-11|  2.7798e-03|  8.0000e-04|  8.0000e-04|  8.0000e-04|   -4.550559|   -4.741711|   -5.174432|   -5.174363|   -4.772049|  -12.471605|    3.510792|
|         344|  7.2618e-01|  4.1708e-11|  2.7798e-03|  8.0000e-04|  8.0000e-04|  8.0000e-04|   -4.550542|   -4.741724|   -5.174426|   -5.174357|   -4.772029|  -12.471587|    3.510819|
|         345|  7.2599e-01|  4.1708e-11|  2.7798e-03|  8.0000e-04|  8.0000e-04|  8.0000e-04|   -4.550525|   -4.741737|   -5.174420|   -5.174352|   -4.772009|  -12.471568|    3.510847|
|         346|  7.2585e-01|  4.1708e-11|  2.7798e-03|  8.0000e-04|  8.0000e-04|  8.0000e-04|   -4.550508|   -4.741750|   -5.174414|   -5.174346|   -4.771989|  -12.471550|    3.510874|
|         347|  7.2574e-01|  4.1708e-11|  2.7798e-03|  8.0000e-04|  8.0000e-04|  8.0000e-04|   -4.550491|   -4.741762|   -5.174409|   -5.174340|   -4.771969|  -12.471531|    3.510902|
|         348|  7.2555e-01|  4.1708e-11|  2.7798e-03|  8.0000e-04|  8.0000e-04|  8.0000e-04|   -4.550474|   -4.741775|   -5.174403|   -5.174334|   -4.771948|  -12.471512|    3.510929|
|         349|  7.2541e-01|  4.1707e-11|  2.7798e-03|  8.0000e-04|  8.0000e-04|  8.0000e-04|   -4.550457|   -4.741788|   -5.174397|   -5.174328|   -4.771928|  -12.471494|    3.510956|
|         350|  7.2532e-01|  4.1707e-11|  2.7798e-03|  8.0000e-04|  8.0000e-04|  8.0000e-04|   -4.550440|   -4.741800|   -5.174391|   -5.174322|   -4.771908|  -12.471475|    3.510984|
[...]
|       15979|  7.1492e-01|  3.9203e-11|  2.7798e-03|  8.0000e-04|  8.0000e-04|  8.0000e-04|   -4.556809|   -4.737477|   -5.193726|   -5.193653|   -4.771867|  -12.459575|    3.641289|
|       15980|  7.1492e-01|  3.9202e-11|  2.7798e-03|  8.0000e-04|  8.0000e-04|  8.0000e-04|   -4.556835|   -4.737470|   -5.193741|   -5.193667|   -4.771898|  -12.459600|    3.641258|
|       15981|  7.1492e-01|  3.9202e-11|  2.7798e-03|  8.0000e-04|  8.0000e-04|  8.0000e-04|   -4.556861|   -4.737464|   -5.193755|   -5.193681|   -4.771929|  -12.459624|    3.641227|
|       15982|  7.1491e-01|  3.9202e-11|  2.7798e-03|  8.0000e-04|  8.0000e-04|  8.0000e-04|   -4.556886|   -4.737457|   -5.193769|   -5.193695|   -4.771960|  -12.459648|    3.641197|
|       15983|  7.1491e-01|  3.9202e-11|  2.7798e-03|  8.0000e-04|  8.0000e-04|  8.0000e-04|   -4.556912|   -4.737451|   -5.193783|   -5.193709|   -4.771991|  -12.459672|    3.641166|
|       15984|  7.1491e-01|  3.9202e-11|  2.7798e-03|  8.0000e-04|  8.0000e-04|  8.0000e-04|   -4.556937|   -4.737444|   -5.193797|   -5.193723|   -4.772022|  -12.459696|    3.641135|
|       15985|  7.1490e-01|  3.9202e-11|  2.7798e-03|  8.0000e-04|  8.0000e-04|  8.0000e-04|   -4.556963|   -4.737438|   -5.193811|   -5.193737|   -4.772053|  -12.459720|    3.641104|
|       15986|  7.1490e-01|  3.9202e-11|  2.7798e-03|  8.0000e-04|  8.0000e-04|  8.0000e-04|   -4.556988|   -4.737432|   -5.193825|   -5.193751|   -4.772084|  -12.459744|    3.641074|
|       15987|  7.1489e-01|  3.9201e-11|  2.7798e-03|  8.0000e-04|  8.0000e-04|  8.0000e-04|   -4.557014|   -4.737425|   -5.193839|   -5.193765|   -4.772115|  -12.459768|    3.641043|
|       15988|  7.1489e-01|  3.9201e-11|  2.7798e-03|  8.0000e-04|  8.0000e-04|  8.0000e-04|   -4.557040|   -4.737419|   -5.193853|   -5.193779|   -4.772146|  -12.459792|    3.641012|
|       15989|  7.1489e-01|  3.9201e-11|  2.7798e-03|  8.0000e-04|  8.0000e-04|  8.0000e-04|   -4.557065|   -4.737412|   -5.193867|   -5.193793|   -4.772177|  -12.459817|    3.640982|
|       15990|  7.1488e-01|  3.9201e-11|  2.7798e-03|  8.0000e-04|  8.0000e-04|  8.0000e-04|   -4.557091|   -4.737406|   -5.193881|   -5.193807|   -4.772208|  -12.459841|    3.640951|
|       15991|  7.1488e-01|  3.9201e-11|  2.7798e-03|  8.0000e-04|  8.0000e-04|  8.0000e-04|   -4.557116|   -4.737399|   -5.193895|   -5.193821|   -4.772239|  -12.459865|    3.640920|
|       15992|  7.1487e-01|  3.9201e-11|  2.7798e-03|  8.0000e-04|  8.0000e-04|  8.0000e-04|   -4.557142|   -4.737393|   -5.193909|   -5.193835|   -4.772270|  -12.459889|    3.640890|
|       15993|  7.1487e-01|  3.9201e-11|  2.7798e-03|  8.0000e-04|  8.0000e-04|  8.0000e-04|   -4.557167|   -4.737387|   -5.193923|   -5.193849|   -4.772301|  -12.459913|    3.640859|
|       15994|  7.1487e-01|  3.9200e-11|  2.7798e-03|  8.0000e-04|  8.0000e-04|  8.0000e-04|   -4.557193|   -4.737380|   -5.193937|   -5.193863|   -4.772332|  -12.459937|    3.640828|
|       15995|  7.1486e-01|  3.9200e-11|  2.7798e-03|  8.0000e-04|  8.0000e-04|  8.0000e-04|   -4.557219|   -4.737374|   -5.193951|   -5.193877|   -4.772363|  -12.459961|    3.640798|
|       15996|  7.1486e-01|  3.9200e-11|  2.7798e-03|  8.0000e-04|  8.0000e-04|  8.0000e-04|   -4.557244|   -4.737368|   -5.193965|   -5.193891|   -4.772393|  -12.459985|    3.640767|
|       15997|  7.1486e-01|  3.9200e-11|  2.7798e-03|  8.0000e-04|  8.0000e-04|  8.0000e-04|   -4.557270|   -4.737361|   -5.193979|   -5.193905|   -4.772424|  -12.460009|    3.640736|
|       15998|  7.1485e-01|  3.9200e-11|  2.7798e-03|  8.0000e-04|  8.0000e-04|  8.0000e-04|   -4.557295|   -4.737355|   -5.193993|   -5.193919|   -4.772455|  -12.460033|    3.640706|
|       15999|  7.1485e-01|  3.9200e-11|  2.7798e-03|  8.0000e-04|  8.0000e-04|  8.0000e-04|   -4.557321|   -4.737348|   -5.194007|   -5.193933|   -4.772486|  -12.460057|    3.640675|
|       16000|  7.1484e-01|  3.9200e-11|  2.7798e-03|  8.0000e-04|  8.0000e-04|  8.0000e-04|   -4.557346|   -4.737342|   -5.194021|   -5.193947|   -4.772517|  -12.460081|    3.640644|
|       16001|  7.1484e-01|  3.9199e-11|  2.7798e-03|  8.0000e-04|  8.0000e-04|  8.0000e-04|   -4.557372|   -4.737336|   -5.194035|   -5.193961|   -4.772548|  -12.460106|    3.640614|
|       16002|  7.1484e-01|  3.9199e-11|  2.7798e-03|  8.0000e-04|  8.0000e-04|  8.0000e-04|   -4.557397|   -4.737329|   -5.194049|   -5.193975|   -4.772579|  -12.460130|    3.640583|
|       16003|  7.1483e-01|  3.9199e-11|  2.7798e-03|  8.0000e-04|  8.0000e-04|  8.0000e-04|   -4.557423|   -4.737323|   -5.194063|   -5.193989|   -4.772610|  -12.460154|    3.640552|
|       16004|  7.1483e-01|  3.9199e-11|  2.7798e-03|  8.0000e-04|  8.0000e-04|  8.0000e-04|   -4.557448|   -4.737317|   -5.194077|   -5.194003|   -4.772641|  -12.460178|    3.640522|
|       16005|  7.1483e-01|  3.9199e-11|  2.7798e-03|  8.0000e-04|  8.0000e-04|  8.0000e-04|   -4.557474|   -4.737310|   -5.194091|   -5.194017|   -4.772672|  -12.460202|    3.640491|
|       16006|  7.1482e-01|  3.9199e-11|  2.7798e-03|  8.0000e-04|  8.0000e-04|  8.0000e-04|   -4.557499|   -4.737304|   -5.194105|   -5.194031|   -4.772702|  -12.460226|    3.640460|
|       16007|  7.1482e-01|  3.9199e-11|  2.7798e-03|  8.0000e-04|  8.0000e-04|  8.0000e-04|   -4.557525|   -4.737298|   -5.194119|   -5.194045|   -4.772733|  -12.460250|    3.640430|
|       16008|  7.1482e-01|  3.9198e-11|  2.7798e-03|  8.0000e-04|  8.0000e-04|  8.0000e-04|   -4.557550|   -4.737291|   -5.194133|   -5.194059|   -4.772764|  -12.460274|    3.640399|
|       16009|  7.1481e-01|  3.9198e-11|  2.7798e-03|  8.0000e-04|  8.0000e-04|  8.0000e-04|   -4.557576|   -4.737285|   -5.194147|   -5.194073|   -4.772795|  -12.460298|    3.640368|
|       16010|  7.1481e-01|  3.9198e-11|  2.7798e-03|  8.0000e-04|  8.0000e-04|  8.0000e-04|   -4.557601|   -4.737279|   -5.194161|   -5.194087|   -4.772826|  -12.460322|    3.640338|
|       16011|  7.1481e-01|  3.9198e-11|  2.7798e-03|  8.0000e-04|  8.0000e-04|  8.0000e-04|   -4.557627|   -4.737272|   -5.194175|   -5.194100|   -4.772857|  -12.460346|    3.640307|
|       16012|  7.1480e-01|  3.9198e-11|  2.7798e-03|  8.0000e-04|  8.0000e-04|  8.0000e-04|   -4.557652|   -4.737266|   -5.194189|   -5.194114|   -4.772888|  -12.460370|    3.640276|
|       16013|  7.1480e-01|  3.9198e-11|  2.7798e-03|  8.0000e-04|  8.0000e-04|  8.0000e-04|   -4.557678|   -4.737260|   -5.194203|   -5.194128|   -4.772919|  -12.460394|    3.640246|
|       16014|  7.1480e-01|  3.9197e-11|  2.7798e-03|  8.0000e-04|  8.0000e-04|  8.0000e-04|   -4.557703|   -4.737253|   -5.194217|   -5.194142|   -4.772949|  -12.460418|    3.640215|
|       16015|  7.1479e-01|  3.9197e-11|  2.7798e-03|  8.0000e-04|  8.0000e-04|  8.0000e-04|   -4.557729|   -4.737247|   -5.194231|   -5.194156|   -4.772980|  -12.460442|    3.640184|
|       16016|  7.1479e-01|  3.9197e-11|  2.7798e-03|  8.0000e-04|  8.0000e-04|  8.0000e-04|   -4.557754|   -4.737241|   -5.194245|   -5.194170|   -4.773011|  -12.460466|    3.640154|
|       16017|  7.1479e-01|  3.9197e-11|  2.7798e-03|  8.0000e-04|  8.0000e-04|  8.0000e-04|   -4.557780|   -4.737234|   -5.194259|   -5.194184|   -4.773042|  -12.460490|    3.640123|
|       16018|  7.1478e-01|  3.9197e-11|  2.7798e-03|  8.0000e-04|  8.0000e-04|  8.0000e-04|   -4.557805|   -4.737228|   -5.194272|   -5.194198|   -4.773073|  -12.460514|    3.640092|
|       16019|  7.1478e-01|  3.9197e-11|  2.7798e-03|  8.0000e-04|  8.0000e-04|  8.0000e-04|   -4.557831|   -4.737222|   -5.194286|   -5.194212|   -4.773104|  -12.460538|    3.640062|
|       16020|  7.1478e-01|  3.9197e-11|  2.7798e-03|  8.0000e-04|  8.0000e-04|  8.0000e-04|   -4.557856|   -4.737216|   -5.194300|   -5.194226|   -4.773134|  -12.460562|    3.640031|
|       16021|  7.1477e-01|  3.9196e-11|  2.7798e-03|  8.0000e-04|  8.0000e-04|  8.0000e-04|   -4.557881|   -4.737209|   -5.194314|   -5.194240|   -4.773165|  -12.460586|    3.640000|
|       16022|  7.1477e-01|  3.9196e-11|  2.7798e-03|  8.0000e-04|  8.0000e-04|  8.0000e-04|   -4.557907|   -4.737203|   -5.194328|   -5.194254|   -4.773196|  -12.460610|    3.639970|
|       16023|  7.1477e-01|  3.9196e-11|  2.7798e-03|  8.0000e-04|  8.0000e-04|  8.0000e-04|   -4.557932|   -4.737197|   -5.194342|   -5.194268|   -4.773227|  -12.460634|    3.639939|
|       16024|  7.1476e-01|  3.9196e-11|  2.7798e-03|  8.0000e-04|  8.0000e-04|  8.0000e-04|   -4.557958|   -4.737190|   -5.194356|   -5.194282|   -4.773258|  -12.460658|    3.639908|
|       16025|  7.1476e-01|  3.9196e-11|  2.7798e-03|  8.0000e-04|  8.0000e-04|  8.0000e-04|   -4.557983|   -4.737184|   -5.194370|   -5.194296|   -4.773289|  -12.460682|    3.639878|
|       16026|  7.1475e-01|  3.9196e-11|  2.7798e-03|  8.0000e-04|  8.0000e-04|  8.0000e-04|   -4.558009|   -4.737178|   -5.194384|   -5.194310|   -4.773319|  -12.460706|    3.639847|
|       16027|  7.1475e-01|  3.9196e-11|  2.7798e-03|  8.0000e-04|  8.0000e-04|  8.0000e-04|   -4.558034|   -4.737172|   -5.194398|   -5.194324|   -4.773350|  -12.460730|    3.639816|
|       16028|  7.1475e-01|  3.9195e-11|  2.7798e-03|  8.0000e-04|  8.0000e-04|  8.0000e-04|   -4.558059|   -4.737165|   -5.194412|   -5.194337|   -4.773381|  -12.460754|    3.639786|
|       16029|  7.1474e-01|  3.9195e-11|  2.7798e-03|  8.0000e-04|  8.0000e-04|  8.0000e-04|   -4.558085|   -4.737159|   -5.194426|   -5.194351|   -4.773412|  -12.460778|    3.639755|
|       16030|  7.1474e-01|  3.9195e-11|  2.7798e-03|  8.0000e-04|  8.0000e-04|  8.0000e-04|   -4.558110|   -4.737153|   -5.194440|   -5.194365|   -4.773443|  -12.460802|    3.639724|
|       16031|  7.1474e-01|  3.9195e-11|  2.7798e-03|  8.0000e-04|  8.0000e-04|  8.0000e-04|   -4.558136|   -4.737147|   -5.194454|   -5.194379|   -4.773473|  -12.460826|    3.639694|
|       16032|  7.1473e-01|  3.9195e-11|  2.7798e-03|  8.0000e-04|  8.0000e-04|  8.0000e-04|   -4.558161|   -4.737140|   -5.194468|   -5.194393|   -4.773504|  -12.460850|    3.639663|
|       16033|  7.1473e-01|  3.9195e-11|  2.7798e-03|  8.0000e-04|  8.0000e-04|  8.0000e-04|   -4.558186|   -4.737134|   -5.194482|   -5.194407|   -4.773535|  -12.460874|    3.639632|
|       16034|  7.1473e-01|  3.9195e-11|  2.7798e-03|  8.0000e-04|  8.0000e-04|  8.0000e-04|   -4.558212|   -4.737128|   -5.194496|   -5.194421|   -4.773566|  -12.460898|    3.639602|
|       16035|  7.1472e-01|  3.9194e-11|  2.7798e-03|  8.0000e-04|  8.0000e-04|  8.0000e-04|   -4.558237|   -4.737122|   -5.194510|   -5.194435|   -4.773597|  -12.460922|    3.639571|
|       16036|  7.1472e-01|  3.9194e-11|  2.7798e-03|  8.0000e-04|  8.0000e-04|  8.0000e-04|   -4.558262|   -4.737115|   -5.194524|   -5.194449|   -4.773627|  -12.460946|    3.639541|
|       16037|  7.1472e-01|  3.9194e-11|  2.7798e-03|  8.0000e-04|  8.0000e-04|  8.0000e-04|   -4.558288|   -4.737109|   -5.194538|   -5.194463|   -4.773658|  -12.460970|    3.639510|
|       16038|  7.1471e-01|  3.9194e-11|  2.7798e-03|  8.0000e-04|  8.0000e-04|  8.0000e-04|   -4.558313|   -4.737103|   -5.194552|   -5.194477|   -4.773689|  -12.460994|    3.639479|
|       16039|  7.1471e-01|  3.9194e-11|  2.7798e-03|  8.0000e-04|  8.0000e-04|  8.0000e-04|   -4.558339|   -4.737097|   -5.194565|   -5.194491|   -4.773720|  -12.461018|    3.639449|
|       16040|  7.1471e-01|  3.9194e-11|  2.7798e-03|  8.0000e-04|  8.0000e-04|  8.0000e-04|   -4.558364|   -4.737091|   -5.194579|   -5.194505|   -4.773750|  -12.461042|    3.639418|
|       16041|  7.1470e-01|  3.9194e-11|  2.7798e-03|  8.0000e-04|  8.0000e-04|  8.0000e-04|   -4.558389|   -4.737084|   -5.194593|   -5.194518|   -4.773781|  -12.461066|    3.639387|
|       16042|  7.1470e-01|  3.9193e-11|  2.7798e-03|  8.0000e-04|  8.0000e-04|  8.0000e-04|   -4.558415|   -4.737078|   -5.194607|   -5.194532|   -4.773812|  -12.461090|    3.639357|
|       16043|  7.1470e-01|  3.9193e-11|  2.7798e-03|  8.0000e-04|  8.0000e-04|  8.0000e-04|   -4.558440|   -4.737072|   -5.194621|   -5.194546|   -4.773843|  -12.461114|    3.639326|
|       16044|  7.1469e-01|  3.9193e-11|  2.7798e-03|  8.0000e-04|  8.0000e-04|  8.0000e-04|   -4.558465|   -4.737066|   -5.194635|   -5.194560|   -4.773873|  -12.461138|    3.639295|
|       16045|  7.1469e-01|  3.9193e-11|  2.7798e-03|  8.0000e-04|  8.0000e-04|  8.0000e-04|   -4.558491|   -4.737060|   -5.194649|   -5.194574|   -4.773904|  -12.461161|    3.639265|
|       16046|  7.1468e-01|  3.9193e-11|  2.7798e-03|  8.0000e-04|  8.0000e-04|  8.0000e-04|   -4.558516|   -4.737053|   -5.194663|   -5.194588|   -4.773935|  -12.461185|    3.639234|
|       16047|  7.1468e-01|  3.9193e-11|  2.7798e-03|  8.0000e-04|  8.0000e-04|  8.0000e-04|   -4.558541|   -4.737047|   -5.194677|   -5.194602|   -4.773966|  -12.461209|    3.639204|
|       16048|  7.1468e-01|  3.9193e-11|  2.7798e-03|  8.0000e-04|  8.0000e-04|  8.0000e-04|   -4.558567|   -4.737041|   -5.194691|   -5.194616|   -4.773996|  -12.461233|    3.639173|
|       16049|  7.1467e-01|  3.9192e-11|  2.7798e-03|  8.0000e-04|  8.0000e-04|  8.0000e-04|   -4.558592|   -4.737035|   -5.194705|   -5.194630|   -4.774027|  -12.461257|    3.639142|
|       16050|  7.1467e-01|  3.9192e-11|  2.7798e-03|  8.0000e-04|  8.0000e-04|  8.0000e-04|   -4.558617|   -4.737029|   -5.194719|   -5.194644|   -4.774058|  -12.461281|    3.639112|
+-----------------------------------------------------------------------+
|        File Writing Summary       |              Filename             |
+-----------------------------------------------------------------------+
|SU2 binary restart                 |restart_flow.dat                   |
|Paraview                           |flow.vtu                           |
|Paraview surface                   |surface_flow.vtu                   |
+-----------------------------------------------------------------------+
+-------------------------------------------------------------------------------------------------------------------------------------------------------------------------------------+
|  Inner_Iter|   Time(sec)|      Min DT|      Max DT|     Min CFL|     Max CFL|     Avg CFL|    rms[Rho]|   rms[RhoU]|   rms[RhoV]|   rms[RhoW]|   rms[RhoE]|     rms[nu]|          CD|
+-------------------------------------------------------------------------------------------------------------------------------------------------------------------------------------+
|       16051|  7.1515e-01|  3.9192e-11|  2.7798e-03|  8.0000e-04|  8.0000e-04|  8.0000e-04|   -4.558643|   -4.737023|   -5.194733|   -5.194657|   -4.774089|  -12.461305|    3.639081|
|       16052|  7.1514e-01|  3.9192e-11|  2.7798e-03|  8.0000e-04|  8.0000e-04|  8.0000e-04|   -4.558668|   -4.737016|   -5.194747|   -5.194671|   -4.774119|  -12.461329|    3.639050|
|       16053|  7.1514e-01|  3.9192e-11|  2.7798e-03|  8.0000e-04|  8.0000e-04|  8.0000e-04|   -4.558693|   -4.737010|   -5.194760|   -5.194685|   -4.774150|  -12.461353|    3.639020|
|       16054|  7.1514e-01|  3.9192e-11|  2.7798e-03|  8.0000e-04|  8.0000e-04|  8.0000e-04|   -4.558718|   -4.737004|   -5.194774|   -5.194699|   -4.774181|  -12.461377|    3.638989|
|       16055|  7.1514e-01|  3.9192e-11|  2.7798e-03|  8.0000e-04|  8.0000e-04|  8.0000e-04|   -4.558744|   -4.736998|   -5.194788|   -5.194713|   -4.774211|  -12.461401|    3.638959|
|       16056|  7.1514e-01|  3.9191e-11|  2.7798e-03|  8.0000e-04|  8.0000e-04|  8.0000e-04|   -4.558769|   -4.736992|   -5.194802|   -5.194727|   -4.774242|  -12.461424|    3.638928|
|       16057|  7.1514e-01|  3.9191e-11|  2.7798e-03|  8.0000e-04|  8.0000e-04|  8.0000e-04|   -4.558794|   -4.736986|   -5.194816|   -5.194741|   -4.774273|  -12.461448|    3.638897|
|       16058|  7.1513e-01|  3.9191e-11|  2.7798e-03|  8.0000e-04|  8.0000e-04|  8.0000e-04|   -4.558820|   -4.736980|   -5.194830|   -5.194755|   -4.774303|  -12.461472|    3.638867|
|       16059|  7.1513e-01|  3.9191e-11|  2.7798e-03|  8.0000e-04|  8.0000e-04|  8.0000e-04|   -4.558845|   -4.736973|   -5.194844|   -5.194769|   -4.774334|  -12.461496|    3.638836|
|       16060|  7.1513e-01|  3.9191e-11|  2.7798e-03|  8.0000e-04|  8.0000e-04|  8.0000e-04|   -4.558870|   -4.736967|   -5.194858|   -5.194782|   -4.774365|  -12.461520|    3.638805|
|       16061|  7.1512e-01|  3.9191e-11|  2.7798e-03|  8.0000e-04|  8.0000e-04|  8.0000e-04|   -4.558895|   -4.736961|   -5.194872|   -5.194796|   -4.774396|  -12.461544|    3.638775|
|       16062|  7.1512e-01|  3.9191e-11|  2.7798e-03|  8.0000e-04|  8.0000e-04|  8.0000e-04|   -4.558921|   -4.736955|   -5.194886|   -5.194810|   -4.774426|  -12.461568|    3.638744|
|       16063|  7.1512e-01|  3.9190e-11|  2.7798e-03|  8.0000e-04|  8.0000e-04|  8.0000e-04|   -4.558946|   -4.736949|   -5.194900|   -5.194824|   -4.774457|  -12.461592|    3.638714|
|       16064|  7.1511e-01|  3.9190e-11|  2.7798e-03|  8.0000e-04|  8.0000e-04|  8.0000e-04|   -4.558971|   -4.736943|   -5.194913|   -5.194838|   -4.774488|  -12.461615|    3.638683|
|       16065|  7.1511e-01|  3.9190e-11|  2.7798e-03|  8.0000e-04|  8.0000e-04|  8.0000e-04|   -4.558996|   -4.736937|   -5.194927|   -5.194852|   -4.774518|  -12.461639|    3.638652|
|       16066|  7.1510e-01|  3.9190e-11|  2.7798e-03|  8.0000e-04|  8.0000e-04|  8.0000e-04|   -4.559022|   -4.736931|   -5.194941|   -5.194866|   -4.774549|  -12.461663|    3.638622|
|       16067|  7.1510e-01|  3.9190e-11|  2.7798e-03|  8.0000e-04|  8.0000e-04|  8.0000e-04|   -4.559047|   -4.736924|   -5.194955|   -5.194880|   -4.774580|  -12.461687|    3.638591|
|       16068|  7.1510e-01|  3.9190e-11|  2.7798e-03|  8.0000e-04|  8.0000e-04|  8.0000e-04|   -4.559072|   -4.736918|   -5.194969|   -5.194893|   -4.774610|  -12.461711|    3.638561|
|       16069|  7.1509e-01|  3.9189e-11|  2.7798e-03|  8.0000e-04|  8.0000e-04|  8.0000e-04|   -4.559097|   -4.736912|   -5.194983|   -5.194907|   -4.774641|  -12.461735|    3.638530|

scontrol show job 1052716
JobId=1052716 JobName=m9_course
   UserId=anthonyy(3152141) GroupId=anthonyy(3152141) MCS_label=N/A
   Priority=731808 Nice=0 Account=rrg-jphickey QOS=normal
   JobState=COMPLETING Reason=None Dependency=(null)
   Requeue=0 Restarts=0 BatchFlag=1 Reboot=0 ExitCode=0:15
   RunTime=03:12:58 TimeLimit=18:00:00 TimeMin=N/A
   SubmitTime=2026-02-23T23:08:44 EligibleTime=2026-02-23T23:08:44
   AccrueTime=2026-02-23T23:08:44
   StartTime=2026-02-23T23:08:48 EndTime=2026-02-24T02:21:46 Deadline=N/A
   SuspendTime=None SecsPreSuspend=0 LastSchedEval=2026-02-23T23:08:48 Scheduler=Main
   Partition=compute AllocNode:Sid=tri-login06:1803250
   ReqNodeList=(null) ExcNodeList=(null)
   NodeList=tri[0257-0258]
   BatchHost=tri0257
   NumNodes=2 NumCPUs=384 NumTasks=128 CPUs/Task=1 ReqB:S:C:T=0:0:*:*
   ReqTRES=cpu=128,mem=1534000M,node=2,billing=128
   AllocTRES=cpu=384,mem=1534000M,node=2,billing=384
   Socks/Node=* NtasksPerN:B:S:C=64:0:*:* CoreSpec=*
   MinCPUsNode=64 MinMemoryNode=0 MinTmpDiskNode=0
   Features=(null) DelayBoot=00:00:00
   OverSubscribe=NO Contiguous=0 Licenses=(null) Network=(null)
   Command=/scratch/anthonyy/reentry/orion/cases/m9_course/run.sh
   WorkDir=/scratch/anthonyy/reentry/orion/cases/m9_course
   Comment=/opt/slurm/bin/sbatch --export=NONE --get-user-env=L run.sh 
   StdErr=/scratch/anthonyy/reentry/orion/cases/m9_course/orion_1052716.err
   StdIn=/dev/null
   StdOut=/scratch/anthonyy/reentry/orion/cases/m9_course/orion_1052716.out
   TresPerTask=cpu=1
   

sacct -j 1052716
JobID           JobName    Account    Elapsed  MaxVMSize     MaxRSS  SystemCPU    UserCPU ExitCode 
------------ ---------- ---------- ---------- ---------- ---------- ---------- ---------- -------- 
1052716       m9_course rrg-jphic+   03:12:58                        00:00.121  00:00.617      0:0 
1052716.bat+      batch rrg-jphic+   03:12:59          0     12048K  00:00.121  00:00.617     0:15 
1052716.ext+     extern rrg-jphic+   03:12:58                         00:00:00   00:00:00      0:0 
1052716.0       SU2_CFD rrg-jphic+   03:12:51                         00:00:00   00:00:00      0:0 

