Nodes: tri[0678,0680]
Tasks: 128
NPN:   64

-------------------------------------------------------------------------
|    ___ _   _ ___                                                      |
|   / __| | | |_  )   Release 7.5.1 "Blackbird"                         |
|   \__ \ |_| |/ /                                                      |
|   |___/\___//___|   Suite (Computational Fluid Dynamics Code)         |
|                                                                       |
-------------------------------------------------------------------------
| SU2 Project Website: https://su2code.github.io                        |
|                                                                       |
| The SU2 Project is maintained by the SU2 Foundation                   |
| (http://su2foundation.org)                                            |
-------------------------------------------------------------------------
| Copyright 2012-2023, SU2 Contributors                                 |
|                                                                       |
| SU2 is free software; you can redistribute it and/or                  |
| modify it under the terms of the GNU Lesser General Public            |
| License as published by the Free Software Foundation; either          |
| version 2.1 of the License, or (at your option) any later version.    |
|                                                                       |
| SU2 is distributed in the hope that it will be useful,                |
| but WITHOUT ANY WARRANTY; without even the implied warranty of        |
| MERCHANTABILITY or FITNESS FOR A PARTICULAR PURPOSE. See the GNU      |
| Lesser General Public License for more details.                       |
|                                                                       |
| You should have received a copy of the GNU Lesser General Public      |
| License along with SU2. If not, see <http://www.gnu.org/licenses/>.   |
-------------------------------------------------------------------------

Parsing config file for zone 0

----------------- Physical Case Definition ( Zone 0 ) -------------------
Compressible RANS equations.
Turbulence model: Spalart-Allmaras-noft2
Hybrid RANS/LES: No Hybrid RANS/LES
Mach number: 9.
Angle of attack (AoA): 0 deg, and angle of sideslip (AoS): 0 deg.
Reynolds number: 1.02934e+09. Reference length 5.
Reading and writing binary SU2 native restart files.
Read flow solution from: restart_flow.dat.
Non-Dimensional simulation (V=1.0, Rho=1.0, T=1.0 at the farfield).
The reference area will be computed using y(2D) or z(3D) projection.
The semi-span will be computed using the max y(3D) value.
The reference length is 0.64607 m.
Reference origin for moment evaluation is (0.25, 0, 0).
Surface(s) where the force coefficients are evaluated: ORION_SURFACE.

Input mesh file name: course.su2

--------------- Space Numerical Integration ( Zone 0 ) ------------------
Jameson-Schmidt-Turkel scheme (2nd order in space) for the flow inviscid terms.
JST viscous coefficients (2nd & 4th): 0.5, 0.02.
The method includes a grid stretching correction (p = 0.3).
Scalar upwind solver for the turbulence model.
First order integration in space.
Average of gradients with correction (viscous flow terms).
Average of gradients with correction (viscous turbulence terms).
Gradient for upwind reconstruction: Green-Gauss.
Gradient for viscous and source terms: Green-Gauss.

--------------- Time Numerical Integration  ( Zone 0 ) ------------------
Local time stepping (steady state simulation).
Euler implicit method for the flow equations.
FGMRES is used for solving the linear system.
Using a ILU(0) preconditioning.
Convergence criteria of the linear solver: 1e-06.
Max number of linear iterations: 100.
CFL adaptation. Factor down: 0.2, factor up: 1.05,
                lower limit: 0.01, upper limit: 0.25,
                acceptable linear residual: 0.001.
Courant-Friedrichs-Lewy number:     0.03
Euler implicit time integration for the turbulence model.

------------------ Convergence Criteria  ( Zone 0 ) ---------------------
Maximum number of solver subiterations: 999999.
Begin convergence monitoring at iteration 5.
Residual minimum value: 1e-8.
Cauchy series min. value: 1e-10.
Number of Cauchy elements: 100.
Begin windowed time average at iteration 0.

-------------------- Output Information ( Zone 0 ) ----------------------
File writing frequency: 
+------------------------------------+
|                     File| Frequency|
+------------------------------------+
|                  RESTART|       150|
|                 PARAVIEW|       150|
|         SURFACE_PARAVIEW|       150|
+------------------------------------+
Writing the convergence history file every 1 inner iterations.
Writing the screen convergence history every 1 inner iterations.
The tabular file format is CSV (.csv).
Convergence history file name: history.
Forces breakdown file name: forces_breakdown.dat.
Surface file name: surface_flow.
Volume file name: flow.
Restart file name: restart_flow.

------------- Config File Boundary Information ( Zone 0 ) ---------------
+-----------------------------------------------------------------------+
|                        Marker Type|                        Marker Name|
+-----------------------------------------------------------------------+
|                          Far-field|                           FARFIELD|
+-----------------------------------------------------------------------+
|                     Heat flux wall|                      ORION_SURFACE|
+-----------------------------------------------------------------------+

-------------------- Output Preprocessing ( Zone 0 ) --------------------

WARNING: SURFACE_PRESSURE_DROP can only be computed for at least 2 surfaces (outlet, inlet, ...)

Screen output fields: INNER_ITER, WALL_TIME, MIN_DELTA_TIME, MAX_DELTA_TIME, MIN_CFL, MAX_CFL, AVG_CFL, RMS_DENSITY, RMS_MOMENTUM-X, RMS_MOMENTUM-Y, RMS_MOMENTUM-Z, RMS_ENERGY, RMS_NU_TILDE, DRAG
History output group(s): ITER, RMS_RES
Convergence field(s): RMS_DENSITY
Warning: No (valid) fields chosen for time convergence monitoring. Time convergence monitoring inactive.
Volume output fields: COORDINATES, SOLUTION, PRIMITIVE

------------------- Geometry Preprocessing ( Zone 0 ) -------------------
Three dimensional problem.
11720736 grid points before partitioning.
30680382 volume elements before partitioning.
2 surface markers.
790 boundary elements in index 0 (Marker = FARFIELD).
360672 boundary elements in index 1 (Marker = ORION_SURFACE).
Executing the partitioning functions.
Building the graph adjacency structure.
Calling ParMETIS... graph partitioning complete (1579501 edge cuts).
Distributing ParMETIS coloring.
Rebalancing vertices.
Rebalancing volume element connectivity.
Rebalancing markers and surface elements.
13574281 vertices including ghost points. 
32958004 interior elements including halo cells. 
11628872 tetrahedra.
21220846 prisms.
108286 pyramids.
Establishing MPI communication patterns.
Setting point connectivity.
Renumbering points (Reverse Cuthill McKee Ordering).
Recomputing point connectivity.
Setting element connectivity.
Checking the numerical grid orientation.
All volume elements are correctly orientend.
All surface elements are correctly orientend.
Identifying edges and vertices.
Setting the control volume structure.
Volume of the computational grid: 591575.
Searching for the closest normal neighbors to the surfaces.
Storing a mapping from global to local point index.
Compute the surface curvature.
Max K: 109.201. Mean K: 3.88946. Standard deviation K: 7.33798.
Checking for periodicity.
Computing mesh quality statistics for the dual control volumes.
+--------------------------------------------------------------+
|           Mesh Quality Metric|        Minimum|        Maximum|
+--------------------------------------------------------------+
|    Orthogonality Angle (deg.)|        52.6472|             90|
|     CV Face Area Aspect Ratio|        1.03802|         193380|
|           CV Sub-Volume Ratio|        1.00749|         34.476|
+--------------------------------------------------------------+
Finding max control volume width.
Communicating number of neighbors.
Reference area = 11.5305 m^2.
Semi-span length = 2.49994 m.
Wetted area = 57.8992 m^2.
Area projection in the x-plane = 19.6317 m^2, y-plane = 11.5307 m^2, z-plane = 11.5305 m^2.
Max. coordinate in the x-direction = 2.575 m, y-direction = 2.49994 m, z-direction = 2.49989 m.
Min. coordinate in the x-direction = -0.71 m, y-direction = -2.49995 m, z-direction = -2.49995 m.
Computing wall distances.

-------------------- Solver Preprocessing ( Zone 0 ) --------------------
Viscous flow: Computing pressure using the ideal gas law
based on the free-stream temperature and a density computed
from the Reynolds number.
Force coefficients computed using free-stream values.

-- Models:
+------------------------------------------------------------------------------+
|          Viscosity Model|        Conductivity Model|              Fluid Model|
+------------------------------------------------------------------------------+
|               SUTHERLAND|          CONSTANT_PRANDTL|             STANDARD_AIR|
+------------------------------------------------------------------------------+
-- Fluid properties:
+------------------------------------------------------------------------------+
|                  Name|    Dim. value|    Ref. value|      Unit|Non-dim. value|
+------------------------------------------------------------------------------+
|        Ref. Viscosity|     1.716e-05|        3683.6|   N.s/m^2|   4.65848e-09|
|      Sutherland Temp.|        273.15|        288.15|         K|      0.947944|
|     Sutherland Const.|         110.4|        288.15|         K|      0.383134|
+------------------------------------------------------------------------------+
|        Prandtl (Lam.)|             -|             -|         -|          0.72|
|       Prandtl (Turb.)|             -|             -|         -|           0.9|
+------------------------------------------------------------------------------+
|          Gas Constant|       287.058|       32552.4|  N.m/kg.K|    0.00881834|
|      Spec. Heat Ratio|             -|             -|         -|           1.4|
+------------------------------------------------------------------------------+
-- Initial and free-stream conditions:
+------------------------------------------------------------------------------+
|                  Name|    Dim. value|    Ref. value|      Unit|Non-dim. value|
+------------------------------------------------------------------------------+
|       Static Pressure|       99485.6|   1.12817e+07|        Pa|    0.00881834|
|               Density|       1.20274|       1.20274|    kg/m^3|             1|
|           Temperature|        288.15|        288.15|         K|             1|
|          Total Energy|   4.89677e+06|   9.37997e+06|   m^2/s^2|      0.522046|
|            Velocity-X|       3062.67|       3062.67|       m/s|             1|
|            Velocity-Y|             0|       3062.67|       m/s|             0|
|            Velocity-Z|             0|       3062.67|       m/s|             0|
|    Velocity Magnitude|       3062.67|       3062.67|       m/s|             1|
+------------------------------------------------------------------------------+
|             Viscosity|    1.7893e-05|        3683.6|   N.s/m^2|   4.85747e-09|
|          Conductivity|             -|    1.1991e+08|   W/m^2.K|             -|
|     Turb. Kin. Energy|       35174.9|   9.37997e+06|   m^2/s^2|       0.00375|
|     Spec. Dissipation|   2.36441e+08|       3062.67|       1/s|       77200.7|
+------------------------------------------------------------------------------+
|           Mach Number|             -|             -|         -|             9|
|       Reynolds Number|             -|             -|         -|   1.02934e+09|
+------------------------------------------------------------------------------+
Initialize Jacobian structure (Navier-Stokes). MG level: 0.
Initialize Jacobian structure (SA model).

------------------- Numerics Preprocessing ( Zone 0 ) -------------------

----------------- Integration Preprocessing ( Zone 0 ) ------------------

------------------- Iteration Preprocessing ( Zone 0 ) ------------------
Euler/Navier-Stokes/RANS fluid iteration.

------------------------------ Begin Solver -----------------------------

Simulation Run using the Single-zone Driver
WARNING: SU2 was not compiled for an AVX-capable architecture. Performance could be better,
         see https://su2code.github.io/docs_v7/Build-SU2-Linux-MacOS/#compiler-optimizations
+-------------------------------------------------------------------------------------------------------------------------------------------------------------------------------------+
|  Inner_Iter|   Time(sec)|      Min DT|      Max DT|     Min CFL|     Max CFL|     Avg CFL|    rms[Rho]|   rms[RhoU]|   rms[RhoV]|   rms[RhoW]|   rms[RhoE]|     rms[nu]|          CD|
+-------------------------------------------------------------------------------------------------------------------------------------------------------------------------------------+
|           0|  1.0704e+00| -2.6240e-02|  1.0430e-01|  1.0000e-02|  3.1500e-02|  3.1499e-02|   -3.605392|   -3.635614|   -4.384793|   -4.393536|   -3.912363|    0.148009|    2.368885|
|           1|  9.7681e-01| -2.7108e-02|  1.0952e-01|  1.0000e-02|  3.3075e-02|  3.3074e-02|   -3.605327|   -3.635538|   -4.384764|   -4.393511|   -3.912289|    0.147931|    2.368850|
|           2|  9.3948e-01|  4.6494e-10|  1.1499e-01|  1.0000e-02|  3.4729e-02|  3.4728e-02|   -3.605260|   -3.635459|   -4.384732|   -4.393484|   -3.912212|    0.169023|    2.368814|
|           3|  9.2705e-01|  4.8818e-10|  1.2074e-01|  1.0000e-02|  3.6465e-02|  3.6464e-02|   -3.605189|   -3.635375|   -4.384699|   -4.393456|   -3.912130|    0.190209|    2.368775|
|           4|  9.2565e-01|  5.1259e-10|  1.2678e-01|  1.0000e-02|  3.8288e-02|  3.8288e-02|   -3.605114|   -3.635288|   -4.384664|   -4.393426|   -3.912044|    0.211396|    2.368735|
|           5|  9.2063e-01|  5.3821e-10|  1.3312e-01|  1.0000e-02|  4.0203e-02|  4.0202e-02|   -3.605035|   -3.635195|   -4.384627|   -4.393394|   -3.911953|    0.232579|    2.368693|
|           6|  9.1300e-01|  5.6512e-10|  1.3977e-01|  1.0000e-02|  4.2213e-02|  4.2212e-02|   -3.604952|   -3.635098|   -4.384587|   -4.393360|   -3.911857|    0.253757|    2.368648|
|           7|  9.0720e-01|  5.9338e-10|  1.4676e-01|  1.0000e-02|  4.4324e-02|  4.4323e-02|   -3.604865|   -3.634995|   -4.384545|   -4.393324|   -3.911756|    0.274930|    2.368602|
|           8|  9.0148e-01|  6.2304e-10|  1.5410e-01|  1.0000e-02|  4.6540e-02|  4.6539e-02|   -3.604773|   -3.634888|   -4.384501|   -4.393286|   -3.911650|    0.296098|    2.368553|
|           9|  9.0315e-01|  6.5419e-10|  1.6180e-01|  1.0000e-02|  4.8867e-02|  4.8866e-02|   -3.604676|   -3.634774|   -4.384453|   -4.393246|   -3.911538|    0.317258|    2.368502|
|          10|  8.9844e-01|  6.8690e-10|  1.6989e-01|  1.0000e-02|  5.1310e-02|  5.1309e-02|   -3.604574|   -3.634655|   -4.384403|   -4.393203|   -3.911419|    0.338412|    2.368448|
|          11|  8.9419e-01|  7.2124e-10|  1.7839e-01|  1.0000e-02|  5.3876e-02|  5.3874e-02|   -3.604467|   -3.634529|   -4.384350|   -4.393157|   -3.911294|    0.359557|    2.368392|
|          12|  8.9148e-01|  7.5729e-10|  1.8731e-01|  1.0000e-02|  5.6569e-02|  5.6568e-02|   -3.604354|   -3.634396|   -4.384294|   -4.393108|   -3.911162|    0.380692|    2.368332|
|          13|  8.8876e-01|  7.9515e-10|  1.9667e-01|  1.0000e-02|  5.9398e-02|  5.9397e-02|   -3.604234|   -3.634257|   -4.384234|   -4.393056|   -3.911022|    0.401818|    2.368270|
|          14|  8.8608e-01|  8.3491e-10|  2.0651e-01|  1.0000e-02|  6.2368e-02|  6.2366e-02|   -3.604108|   -3.634109|   -4.384170|   -4.393001|   -3.910875|    0.422932|    2.368205|
|          15|  8.8398e-01| -6.3467e-03|  2.1683e-01|  1.0000e-02|  6.5486e-02|  6.5485e-02|   -3.603976|   -3.633954|   -4.384102|   -4.392942|   -3.910720|    0.444034|    2.368137|
|          16|  8.8141e-01|  9.2047e-10|  2.2767e-01|  1.0000e-02|  6.8761e-02|  6.8759e-02|   -3.603836|   -3.633791|   -4.384030|   -4.392880|   -3.910555|    0.465122|    2.368065|
|          17|  8.8111e-01|  9.6649e-10|  2.3906e-01|  1.0000e-02|  7.2199e-02|  7.2197e-02|   -3.603689|   -3.633619|   -4.383953|   -4.392813|   -3.910382|    0.486195|    2.367990|
|          18|  8.8053e-01|  1.0148e-09|  2.5101e-01|  1.0000e-02|  7.5809e-02|  7.5807e-02|   -3.603533|   -3.633438|   -4.383871|   -4.392742|   -3.910198|    0.507251|    2.367911|
|          19|  8.7870e-01|  1.0655e-09|  2.6356e-01|  1.0000e-02|  7.9599e-02|  7.9597e-02|   -3.603369|   -3.633246|   -4.383784|   -4.392666|   -3.910004|    0.528289|    2.367829|
|          20|  8.7761e-01|  1.1188e-09|  2.7674e-01|  1.0000e-02|  8.3579e-02|  8.3577e-02|   -3.603196|   -3.633045|   -4.383692|   -4.392586|   -3.909799|    0.549308|    2.367742|
|          21|  9.3589e-01| -2.9797e-01|  2.9058e-01|  1.0000e-02|  8.7758e-02|  8.7756e-02|   -3.603014|   -3.632832|   -4.383593|   -4.392500|   -3.909582|    0.570305|    2.367651|
|          22|  9.3205e-01|  1.2335e-09|  3.0511e-01|  1.0000e-02|  9.2146e-02|  9.2143e-02|   -3.602821|   -3.632608|   -4.383488|   -4.392408|   -3.909352|    0.591280|    2.367556|
|          23|  9.2929e-01|  1.2951e-09|  3.2036e-01|  1.0000e-02|  9.6753e-02|  9.6750e-02|   -3.602618|   -3.632372|   -4.383376|   -4.392310|   -3.909109|    0.612228|    2.367456|
|          24|  9.2646e-01|  1.3599e-09|  3.3638e-01|  1.0000e-02|  1.0159e-01|  1.0159e-01|   -3.602403|   -3.632122|   -4.383257|   -4.392205|   -3.908852|    0.633149|    2.367351|
|          25|  9.2323e-01|  1.4278e-09|  3.5320e-01|  1.0000e-02|  1.0667e-01|  1.0667e-01|   -3.602177|   -3.631859|   -4.383130|   -4.392093|   -3.908580|    0.654042|    2.367242|
|          26|  9.2096e-01|  1.4992e-09|  3.7086e-01|  1.0000e-02|  1.1200e-01|  1.1200e-01|   -3.601938|   -3.631582|   -4.382994|   -4.391974|   -3.908292|    0.674902|    2.367127|
|          27|  9.1864e-01|  1.5742e-09|  3.8940e-01|  1.0000e-02|  1.1760e-01|  1.1760e-01|   -3.601686|   -3.631289|   -4.382850|   -4.391847|   -3.907987|    0.695729|    2.367006|
|          28|  9.1638e-01|  1.6528e-09|  4.0887e-01|  1.0000e-02|  1.2348e-01|  1.2348e-01|   -3.601420|   -3.630981|   -4.382696|   -4.391711|   -3.907664|    0.716520|    2.366880|
|          29|  9.1391e-01|  1.7355e-09|  4.2931e-01|  1.0000e-02|  1.2966e-01|  1.2965e-01|   -3.601140|   -3.630656|   -4.382534|   -4.391566|   -3.907323|    0.737273|    2.366748|
|          30|  9.1169e-01|  1.8222e-09|  4.5078e-01|  1.0000e-02|  1.3614e-01|  1.3614e-01|   -3.600844|   -3.630313|   -4.382361|   -4.391411|   -3.906962|    0.757985|    2.366610|
|          31|  9.0970e-01|  1.9133e-09|  4.7332e-01|  1.0000e-02|  1.4295e-01|  1.4294e-01|   -3.600531|   -3.629951|   -4.382175|   -4.391245|   -3.906579|    0.778655|    2.366464|
|          32|  9.0789e-01|  2.0089e-09|  4.9699e-01|  1.0000e-02|  1.5010e-01|  1.5009e-01|   -3.600201|   -3.629569|   -4.381978|   -4.391068|   -3.906172|    0.799280|    2.366313|
|          33|  9.0844e-01|  2.1094e-09|  5.2183e-01|  1.0000e-02|  1.5760e-01|  1.5760e-01|   -3.599851|   -3.629165|   -4.381767|   -4.390878|   -3.905741|    0.819858|    2.366154|
|          34|  9.0879e-01|  2.2148e-09|  5.4793e-01|  1.0000e-02|  1.6548e-01|  1.6548e-01|   -3.599485|   -3.628741|   -4.381545|   -4.390675|   -3.905286|    0.840387|    2.365987|
|          35|  9.0908e-01|  2.3255e-09|  5.7532e-01|  1.0000e-02|  1.7375e-01|  1.7375e-01|   -3.599101|   -3.628297|   -4.381311|   -4.390458|   -3.904808|    0.860865|    2.365813|
|          36|  9.0950e-01|  2.4417e-09|  6.0409e-01|  1.0000e-02|  1.8244e-01|  1.8244e-01|   -3.598694|   -3.627828|   -4.381061|   -4.390225|   -3.904300|    0.881292|    2.365631|
|          37|  9.0985e-01|  2.5638e-09|  6.3429e-01|  1.0000e-02|  1.9156e-01|  1.9156e-01|   -3.598264|   -3.627332|   -4.380794|   -4.389977|   -3.903760|    0.901669|    2.365440|
|          38|  9.0988e-01|  2.6919e-09|  6.6601e-01|  1.0000e-02|  2.0114e-01|  2.0114e-01|   -3.597809|   -3.626807|   -4.380509|   -4.389712|   -3.903187|    0.921994|    2.365241|
|          39|  9.0986e-01|  2.8265e-09|  6.9931e-01|  1.0000e-02|  2.1120e-01|  2.1119e-01|   -3.597328|   -3.626253|   -4.380205|   -4.389429|   -3.902579|    0.942269|    2.365032|
|          40|  9.0991e-01|  2.9677e-09|  7.3427e-01|  1.0000e-02|  2.2176e-01|  2.2175e-01|   -3.596819|   -3.625667|   -4.379880|   -4.389127|   -3.901932|    0.962493|    2.364814|
|          41|  9.1004e-01|  3.1160e-09|  7.7099e-01|  1.0000e-02|  2.3285e-01|  2.3284e-01|   -3.596280|   -3.625048|   -4.379533|   -4.388803|   -3.901245|    0.982668|    2.364586|
|          42|  9.1009e-01|  3.2718e-09|  8.0954e-01|  1.0000e-02|  2.4449e-01|  2.4448e-01|   -3.595709|   -3.624392|   -4.379162|   -4.388458|   -3.900514|    1.002795|    2.364348|
|          43|  9.1024e-01| -2.1885e+00|  8.5001e-01|  1.0000e-02|  2.5000e-01|  2.4999e-01|   -3.595105|   -3.623699|   -4.378766|   -4.388088|   -3.899738|    1.065586|    2.364099|
|          44|  9.1024e-01|  3.5126e-09|  8.6917e-01|  1.0000e-02|  2.5000e-01|  2.4999e-01|   -3.594466|   -3.622965|   -4.378343|   -4.387693|   -3.898912|    1.167148|    2.363846|
|          45|  9.1081e-01|  3.5126e-09|  8.6917e-01|  1.0000e-02|  2.5000e-01|  2.4999e-01|   -3.593813|   -3.622216|   -4.377913|   -4.387292|   -3.898067|    1.236976|    2.363594|
|          46|  9.1121e-01|  3.5125e-09|  8.6917e-01|  1.0000e-02|  2.5000e-01|  2.4999e-01|   -3.593166|   -3.621473|   -4.377492|   -4.386899|   -3.897230|    1.284050|    2.363344|
|          47|  9.1107e-01|  3.5124e-09|  8.6917e-01|  1.0000e-02|  2.5000e-01|  2.4999e-01|   -3.592525|   -3.620737|   -4.377080|   -4.386516|   -3.896399|    1.318781|    2.363095|
|          48|  9.1110e-01|  3.5124e-09|  8.6917e-01|  1.0000e-02|  2.5000e-01|  2.4999e-01|   -3.591890|   -3.620007|   -4.376677|   -4.386143|   -3.895578|    1.344756|    2.362848|
|          49|  9.1110e-01| -1.5568e+00|  8.6917e-01|  1.0000e-02|  2.5000e-01|  2.4999e-01|   -3.591262|   -3.619285|   -4.376282|   -4.385778|   -3.894764|    1.364321|    2.362602|
|          50|  9.1108e-01|  3.5122e-09|  8.6917e-01|  1.0000e-02|  2.5000e-01|  2.4999e-01|   -3.590640|   -3.618569|   -4.375894|   -4.385421|   -3.893958|    1.379081|    2.362358|
|          51|  9.1119e-01| -2.2024e+00|  8.6917e-01|  1.0000e-02|  2.5000e-01|  2.4999e-01|   -3.590024|   -3.617858|   -4.375514|   -4.385074|   -3.893160|    1.390173|    2.362115|
|          52|  9.1125e-01|  3.5121e-09|  8.6917e-01|  1.0000e-02|  2.5000e-01|  2.4999e-01|   -3.589413|   -3.617154|   -4.375142|   -4.384735|   -3.892368|    1.398424|    2.361873|
|          53|  9.1152e-01|  3.5121e-09|  8.6917e-01|  1.0000e-02|  2.5000e-01|  2.4999e-01|   -3.588808|   -3.616455|   -4.374777|   -4.384404|   -3.891584|    1.404451|    2.361633|
|          54|  9.1181e-01|  3.5120e-09|  8.6917e-01|  1.0000e-02|  2.5000e-01|  2.4999e-01|   -3.588209|   -3.615764|   -4.374418|   -4.384080|   -3.890809|    1.408721|    2.361395|
|          55|  9.1204e-01|  3.5119e-09|  8.6917e-01|  1.0000e-02|  2.5000e-01|  2.4999e-01|   -3.587616|   -3.615079|   -4.374067|   -4.383763|   -3.890041|    1.411592|    2.361158|
|          56|  9.1228e-01|  3.5119e-09|  8.6917e-01|  1.0000e-02|  2.5000e-01|  2.4999e-01|   -3.587030|   -3.614401|   -4.373722|   -4.383453|   -3.889283|    1.413337|    2.360922|
|          57|  9.1278e-01|  3.5118e-09|  8.6917e-01|  1.0000e-02|  2.5000e-01|  2.4999e-01|   -3.586463|   -3.613744|   -4.373386|   -4.383149|   -3.888547|    1.414160|    2.360688|
|          58|  9.1321e-01|  3.5118e-09|  8.6917e-01|  1.0000e-02|  2.5000e-01|  2.4999e-01|   -3.585935|   -3.613128|   -4.373056|   -4.382848|   -3.887852|    1.414199|    2.360455|
|          59|  9.1355e-01|  3.5117e-09|  8.6917e-01|  1.0000e-02|  2.5000e-01|  2.4999e-01|   -3.585415|   -3.612520|   -4.372733|   -4.382555|   -3.887166|    1.413519|    2.360224|
|          60|  9.1375e-01| -4.0598e+01|  8.6917e-01|  1.0000e-02|  2.5000e-01|  2.4999e-01|   -3.584901|   -3.611919|   -4.372415|   -4.382269|   -3.886490|    1.412076|    2.359995|
|          61|  9.1392e-01|  3.5116e-09|  8.6917e-01|  1.0000e-02|  2.5000e-01|  2.4999e-01|   -3.584394|   -3.611326|   -4.372103|   -4.381990|   -3.885821|    1.409648|    2.359766|
|          62|  9.1438e-01| -9.1653e+00|  8.6917e-01|  1.0000e-02|  2.5000e-01|  2.4999e-01|   -3.583892|   -3.610738|   -4.371795|   -4.381717|   -3.885161|    1.405671|    2.359540|
|          63|  9.1467e-01|  3.5116e-09|  8.6917e-01|  1.0000e-02|  2.5000e-01|  2.4999e-01|   -3.583398|   -3.610159|   -4.371497|   -4.381449|   -3.884511|    1.398909|    2.359315|
|          64|  9.1484e-01|  3.5115e-09|  8.6917e-01|  1.0000e-02|  2.5000e-01|  2.4999e-01|   -3.582911|   -3.609588|   -4.371203|   -4.381187|   -3.883871|    1.386718|    2.359091|
|          65|  9.1508e-01|  3.5115e-09|  8.6917e-01|  1.0000e-02|  2.5000e-01|  2.4999e-01|   -3.582431|   -3.609024|   -4.370916|   -4.380931|   -3.883239|    1.363348|    2.358869|
|          66|  9.1523e-01|  3.5114e-09|  8.6917e-01|  1.0000e-02|  2.5000e-01|  2.4999e-01|   -3.581958|   -3.608468|   -4.370634|   -4.380680|   -3.882617|    1.315410|    2.358649|
|          67|  9.1581e-01|  3.5114e-09|  8.6917e-01|  1.0000e-02|  2.5000e-01|  2.4999e-01|   -3.581491|   -3.607918|   -4.370357|   -4.380434|   -3.882003|    1.206679|    2.358430|
|          68|  9.1649e-01|  3.5114e-09|  8.6917e-01|  1.0000e-02|  2.5000e-01|  2.4999e-01|   -3.581030|   -3.607376|   -4.370082|   -4.380197|   -3.881397|    1.026462|    2.358212|
|          69|  9.1678e-01|  3.5113e-09|  8.6917e-01|  1.0000e-02|  2.5000e-01|  2.4999e-01|   -3.580573|   -3.606838|   -4.369811|   -4.379964|   -3.880798|    1.024034|    2.357996|
|          70|  9.1708e-01|  3.5113e-09|  8.6917e-01|  1.0000e-02|  2.5000e-01|  2.4999e-01|   -3.580122|   -3.606306|   -4.369543|   -4.379734|   -3.880207|    1.023180|    2.357782|
|          71|  9.1735e-01|  3.5113e-09|  8.6917e-01|  1.0000e-02|  2.5000e-01|  2.4999e-01|   -3.579678|   -3.605782|   -4.369280|   -4.379509|   -3.879625|    1.022441|    2.357569|
|          72|  9.1783e-01|  3.5112e-09|  8.6917e-01|  1.0000e-02|  2.5000e-01|  2.4999e-01|   -3.579240|   -3.605266|   -4.369022|   -4.379288|   -3.879052|    1.021699|    2.357358|
|          73|  9.1831e-01|  3.5112e-09|  8.6917e-01|  1.0000e-02|  2.5000e-01|  2.4999e-01|   -3.578808|   -3.604755|   -4.368767|   -4.379071|   -3.878487|    1.020950|    2.357148|
|          74|  9.1867e-01|  3.5112e-09|  8.6917e-01|  1.0000e-02|  2.5000e-01|  2.4999e-01|   -3.578381|   -3.604250|   -4.368515|   -4.378857|   -3.877928|    1.020190|    2.356939|
|          75|  9.1900e-01|  3.5112e-09|  8.6917e-01|  1.0000e-02|  2.5000e-01|  2.4999e-01|   -3.577958|   -3.603750|   -4.368265|   -4.378647|   -3.877376|    1.019414|    2.356733|
|          76|  9.2062e-01|  3.5111e-09|  8.6917e-01|  1.0000e-02|  2.5000e-01|  2.4999e-01|   -3.577542|   -3.603257|   -4.368020|   -4.378441|   -3.876834|    1.018622|    2.356527|
|          77|  9.2106e-01|  3.5111e-09|  8.6917e-01|  1.0000e-02|  2.5000e-01|  2.4999e-01|   -3.577132|   -3.602771|   -4.367780|   -4.378239|   -3.876299|    1.017809|    2.356323|
|          78|  9.2139e-01|  3.5111e-09|  8.6917e-01|  1.0000e-02|  2.5000e-01|  2.4999e-01|   -3.576727|   -3.602291|   -4.367542|   -4.378040|   -3.875772|    1.016972|    2.356121|
|          79|  9.2172e-01|  3.5111e-09|  8.6917e-01|  1.0000e-02|  2.5000e-01|  2.4999e-01|   -3.576327|   -3.601816|   -4.367308|   -4.377845|   -3.875252|    1.016110|    2.355920|
|          80|  9.2202e-01| -1.1305e+02|  8.6917e-01|  1.0000e-02|  2.5000e-01|  2.4999e-01|   -3.575931|   -3.601346|   -4.367076|   -4.377654|   -3.874738|    1.015216|    2.355721|
|          81|  9.2234e-01|  3.5111e-09|  8.6917e-01|  1.0000e-02|  2.5000e-01|  2.4999e-01|   -3.575538|   -3.600880|   -4.366844|   -4.377464|   -3.874229|    1.014289|    2.355523|
|          82|  9.2269e-01|  3.5111e-09|  8.6917e-01|  1.0000e-02|  2.5000e-01|  2.4999e-01|   -3.575150|   -3.600419|   -4.366615|   -4.377276|   -3.873726|    1.013325|    2.355326|
|          83|  9.2298e-01|  3.5110e-09|  8.6917e-01|  1.0000e-02|  2.5000e-01|  2.4999e-01|   -3.574766|   -3.599962|   -4.366387|   -4.377091|   -3.873229|    1.012325|    2.355132|
|          84|  9.2333e-01|  3.5110e-09|  8.6917e-01|  1.0000e-02|  2.5000e-01|  2.4999e-01|   -3.574385|   -3.599509|   -4.366162|   -4.376907|   -3.872737|    1.011285|    2.354938|
|          85|  9.2360e-01| -2.8277e+02|  8.6917e-01|  1.0000e-02|  2.5000e-01|  2.4999e-01|   -3.574007|   -3.599060|   -4.365938|   -4.376726|   -3.872251|    1.010205|    2.354746|
|          86|  9.2399e-01| -4.6789e+00|  8.6917e-01|  1.0000e-02|  2.5000e-01|  2.4999e-01|   -3.573633|   -3.598615|   -4.365716|   -4.376547|   -3.871770|    1.009084|    2.354555|
|          87|  9.2427e-01| -3.8910e+01|  8.6917e-01|  1.0000e-02|  2.5000e-01|  2.4999e-01|   -3.573264|   -3.598175|   -4.365497|   -4.376370|   -3.871295|    1.007921|    2.354366|
|          88|  9.2453e-01| -8.2986e-01|  8.6917e-01|  1.0000e-02|  2.5000e-01|  2.4999e-01|   -3.572899|   -3.597740|   -4.365280|   -4.376196|   -3.870826|    1.006715|    2.354179|
|          89|  9.2479e-01| -9.2374e-01|  8.6917e-01|  1.0000e-02|  2.5000e-01|  2.4999e-01|   -3.572537|   -3.597308|   -4.365065|   -4.376023|   -3.870363|    1.005466|    2.353992|
|          90|  9.2515e-01| -9.1896e-01|  8.6917e-01|  1.0000e-02|  2.5000e-01|  2.4999e-01|   -3.572178|   -3.596880|   -4.364852|   -4.375851|   -3.869903|    1.004173|    2.353807|
|          91|  9.2543e-01| -8.8973e-01|  8.6917e-01|  1.0000e-02|  2.5000e-01|  2.4999e-01|   -3.571823|   -3.596456|   -4.364640|   -4.375682|   -3.869449|    1.002837|    2.353624|
|          92|  9.2561e-01| -7.6044e+01|  8.6917e-01|  1.0000e-02|  2.5000e-01|  2.4999e-01|   -3.571471|   -3.596035|   -4.364430|   -4.375513|   -3.869000|    1.001458|    2.353442|
|          93|  9.4998e-01| -1.1248e+01|  8.6917e-01|  1.0000e-02|  2.5000e-01|  2.4999e-01|   -3.571122|   -3.595619|   -4.364223|   -4.375347|   -3.868555|    1.000037|    2.353261|
|          94|  9.5008e-01| -8.6649e-01|  8.6917e-01|  1.0000e-02|  2.5000e-01|  2.4999e-01|   -3.570777|   -3.595206|   -4.364019|   -4.375184|   -3.868116|    0.998573|    2.353082|
|          95|  9.5007e-01| -9.0379e-01|  8.6917e-01|  1.0000e-02|  2.5000e-01|  2.4999e-01|   -3.570434|   -3.594796|   -4.363816|   -4.375021|   -3.867680|    0.997067|    2.352904|
|          96|  9.5013e-01| -9.6419e-01|  8.6917e-01|  1.0000e-02|  2.5000e-01|  2.4999e-01|   -3.570094|   -3.594388|   -4.363614|   -4.374859|   -3.867248|    0.995520|    2.352727|
|          97|  9.5008e-01| -1.0466e+00|  8.6917e-01|  1.0000e-02|  2.5000e-01|  2.4999e-01|   -3.569756|   -3.593984|   -4.363414|   -4.374698|   -3.866820|    0.993931|    2.352552|
|          98|  9.4996e-01| -1.1504e+00|  8.6917e-01|  1.0000e-02|  2.5000e-01|  2.4999e-01|   -3.569421|   -3.593582|   -4.363216|   -4.374537|   -3.866396|    0.992301|    2.352378|
|          99|  9.5015e-01| -1.2746e+00|  8.6917e-01|  1.0000e-02|  2.5000e-01|  2.4999e-01|   -3.569089|   -3.593184|   -4.363022|   -4.374376|   -3.865976|    0.990633|    2.352206|
|         100|  9.5010e-01| -1.4194e+00|  8.6917e-01|  1.0000e-02|  2.5000e-01|  2.4999e-01|   -3.568760|   -3.592790|   -4.362830|   -4.374217|   -3.865561|    0.988926|    2.352034|
|         101|  9.4988e-01| -8.7012e+00|  8.6917e-01|  1.0000e-02|  2.5000e-01|  2.4999e-01|   -3.568436|   -3.592400|   -4.362641|   -4.374059|   -3.865151|    0.987182|    2.351864|
|         102|  9.4968e-01| -1.7719e+00|  8.6917e-01|  1.0000e-02|  2.5000e-01|  2.4999e-01|   -3.568115|   -3.592014|   -4.362453|   -4.373904|   -3.864747|    0.985403|    2.351696|
|         103|  9.4946e-01| -1.9811e+00|  8.6917e-01|  1.0000e-02|  2.5000e-01|  2.4999e-01|   -3.567796|   -3.591630|   -4.362266|   -4.373750|   -3.864345|    0.983590|    2.351528|
|         104|  9.4925e-01| -2.2142e+00|  8.6917e-01|  1.0000e-02|  2.5000e-01|  2.4999e-01|   -3.567480|   -3.591250|   -4.362080|   -4.373598|   -3.863947|    0.981744|    2.351362|
|         105|  9.4943e-01| -2.4729e+00|  8.6917e-01|  1.0000e-02|  2.5000e-01|  2.4999e-01|   -3.567166|   -3.590872|   -4.361894|   -4.373448|   -3.863552|    0.979866|    2.351197|
|         106|  9.4942e-01| -2.7593e+00|  8.6917e-01|  1.0000e-02|  2.5000e-01|  2.4999e-01|   -3.566854|   -3.590495|   -4.361708|   -4.373298|   -3.863159|    0.977959|    2.351033|
|         107|  9.4917e-01| -3.0764e+00|  8.6917e-01|  1.0000e-02|  2.5000e-01|  2.4999e-01|   -3.566543|   -3.590120|   -4.361523|   -4.373148|   -3.862769|    0.976023|    2.350871|
|         108|  9.4889e-01| -3.4272e+00|  8.6917e-01|  1.0000e-02|  2.5000e-01|  2.4999e-01|   -3.566233|   -3.589747|   -4.361339|   -4.372998|   -3.862380|    0.974060|    2.350709|
|         109|  9.4865e-01| -3.8158e+00|  8.6917e-01|  1.0000e-02|  2.5000e-01|  2.4999e-01|   -3.565945|   -3.589396|   -4.361159|   -4.372860|   -3.862015|    0.972071|    2.350549|
|         110|  9.4851e-01| -4.2466e+00|  8.6917e-01|  1.0000e-02|  2.5000e-01|  2.4999e-01|   -3.565659|   -3.589048|   -4.360981|   -4.372722|   -3.861653|    0.970054|    2.350390|
|         111|  9.4825e-01| -4.7253e+00|  8.6917e-01|  1.0000e-02|  2.5000e-01|  2.4999e-01|   -3.565377|   -3.588704|   -4.360804|   -4.372586|   -3.861295|    0.968012|    2.350232|
|         112|  9.4802e-01| -5.2585e+00|  8.6917e-01|  1.0000e-02|  2.5000e-01|  2.4999e-01|   -3.565096|   -3.588361|   -4.360629|   -4.372450|   -3.860939|    0.965945|    2.350075|
|         113|  9.4779e-01| -5.8540e+00|  8.6917e-01|  1.0000e-02|  2.5000e-01|  2.4999e-01|   -3.564818|   -3.588022|   -4.360456|   -4.372314|   -3.860586|    0.963855|    2.349920|
|         114|  9.4760e-01| -6.5217e+00|  8.6917e-01|  1.0000e-02|  2.5000e-01|  2.4999e-01|   -3.564540|   -3.587683|   -4.360284|   -4.372178|   -3.860235|    0.961742|    2.349765|
|         115|  9.4753e-01| -7.2732e+00|  8.6917e-01|  1.0000e-02|  2.5000e-01|  2.4999e-01|   -3.564264|   -3.587345|   -4.360113|   -4.372041|   -3.859885|    0.959609|    2.349612|
|         116|  9.4728e-01| -8.1231e+00|  8.6917e-01|  1.0000e-02|  2.5000e-01|  2.4999e-01|   -3.563989|   -3.587008|   -4.359944|   -4.371904|   -3.859536|    0.957455|    2.349459|
|         117|  9.4708e-01| -9.0902e+00|  8.6917e-01|  1.0000e-02|  2.5000e-01|  2.4999e-01|   -3.563715|   -3.586674|   -4.359778|   -4.371768|   -3.859190|    0.955281|    2.349308|
|         118|  9.4693e-01| -1.0186e+01|  8.6917e-01|  1.0000e-02|  2.5000e-01|  2.4999e-01|   -3.563444|   -3.586341|   -4.359614|   -4.371632|   -3.858845|    0.953088|    2.349157|
|         119|  9.4671e-01| -1.3383e+01|  8.6917e-01|  1.0000e-02|  2.5000e-01|  2.4999e-01|   -3.563176|   -3.586012|   -4.359455|   -4.371497|   -3.858505|    0.950877|    2.349008|
|         120|  9.4650e-01| -1.2887e+01|  8.6917e-01|  1.0000e-02|  2.5000e-01|  2.4999e-01|   -3.562909|   -3.585683|   -4.359298|   -4.371362|   -3.858166|    0.948646|    2.348859|
|         121|  9.4634e-01| -1.4574e+01|  8.6917e-01|  1.0000e-02|  2.5000e-01|  2.4999e-01|   -3.562644|   -3.585357|   -4.359143|   -4.371228|   -3.857829|    0.946397|    2.348712|
|         122|  9.4619e-01| -1.6562e+01|  8.6917e-01|  1.0000e-02|  2.5000e-01|  2.4999e-01|   -3.562380|   -3.585032|   -4.358990|   -4.371094|   -3.857494|    0.944129|    2.348565|
|         123|  9.4601e-01| -1.8929e+01|  8.6917e-01|  1.0000e-02|  2.5000e-01|  2.4999e-01|   -3.562117|   -3.584708|   -4.358838|   -4.370960|   -3.857159|    0.941842|    2.348419|
|         124|  9.4584e-01| -2.1791e+01|  8.6917e-01|  1.0000e-02|  2.5000e-01|  2.4999e-01|   -3.561855|   -3.584385|   -4.358688|   -4.370825|   -3.856825|    0.939535|    2.348274|
|         125|  9.4586e-01| -2.5307e+01|  8.6917e-01|  1.0000e-02|  2.5000e-01|  2.4999e-01|   -3.561621|   -3.584093|   -4.358556|   -4.370694|   -3.856520|    0.937207|    2.348131|
|         126|  9.4570e-01| -2.9722e+01|  8.6917e-01|  1.0000e-02|  2.5000e-01|  2.4999e-01|   -3.561391|   -3.583804|   -4.358427|   -4.370562|   -3.856219|    0.934856|    2.347987|
|         127|  9.4567e-01| -3.5415e+01|  8.6917e-01|  1.0000e-02|  2.5000e-01|  2.4999e-01|   -3.561161|   -3.583516|   -4.358300|   -4.370429|   -3.855918|    0.932483|    2.347845|
|         128|  9.4565e-01| -4.3022e+01|  8.6917e-01|  1.0000e-02|  2.5000e-01|  2.4999e-01|   -3.560934|   -3.583230|   -4.358177|   -4.370297|   -3.855620|    0.930085|    2.347704|
|         129|  9.4538e-01| -5.3661e+01|  8.6917e-01|  1.0000e-02|  2.5000e-01|  2.4999e-01|   -3.560707|   -3.582946|   -4.358055|   -4.370165|   -3.855322|    0.927661|    2.347563|
|         130|  9.4519e-01| -7.4526e+01|  8.6917e-01|  1.0000e-02|  2.5000e-01|  2.4999e-01|   -3.560481|   -3.582662|   -4.357933|   -4.370033|   -3.855026|    0.925210|    2.347423|
|         131|  9.4506e-01| -9.5053e+01|  8.6917e-01|  1.0000e-02|  2.5000e-01|  2.4999e-01|   -3.560256|   -3.582378|   -4.357813|   -4.369900|   -3.854729|    0.922730|    2.347284|
|         132|  9.4961e-01| -1.4488e+02|  8.6917e-01|  1.0000e-02|  2.5000e-01|  2.4999e-01|   -3.560032|   -3.582097|   -4.357695|   -4.369767|   -3.854435|    0.920220|    2.347145|
|         133|  9.4941e-01|  3.5125e-09|  8.6917e-01|  1.0000e-02|  2.5000e-01|  2.4999e-01|   -3.559810|   -3.581817|   -4.357578|   -4.369635|   -3.854142|    0.917677|    2.347008|
|         134|  9.4906e-01|  3.5126e-09|  8.6917e-01|  1.0000e-02|  2.5000e-01|  2.4999e-01|   -3.559588|   -3.581537|   -4.357461|   -4.369502|   -3.853850|    0.915095|    2.346871|
|         135|  9.4893e-01|  3.5127e-09|  8.6917e-01|  1.0000e-02|  2.5000e-01|  2.4999e-01|   -3.559367|   -3.581258|   -4.357347|   -4.369370|   -3.853558|    0.912433|    2.346734|
|         136|  9.4857e-01|  3.5127e-09|  8.6917e-01|  1.0000e-02|  2.5000e-01|  2.4999e-01|   -3.559146|   -3.580981|   -4.357234|   -4.369238|   -3.853268|    0.909693|    2.346598|
|         137|  9.4821e-01|  3.5128e-09|  8.6917e-01|  1.0000e-02|  2.5000e-01|  2.4999e-01|   -3.558927|   -3.580705|   -4.357123|   -4.369107|   -3.852979|    0.906874|    2.346463|
|         138|  9.4779e-01|  3.5129e-09|  8.6917e-01|  1.0000e-02|  2.5000e-01|  2.4999e-01|   -3.558711|   -3.580431|   -4.357013|   -4.368976|   -3.852692|    0.903977|    2.346329|
|         139|  9.4748e-01|  3.5129e-09|  8.6917e-01|  1.0000e-02|  2.5000e-01|  2.4999e-01|   -3.558494|   -3.580157|   -4.356902|   -4.368843|   -3.852405|    0.901004|    2.346195|
|         140|  9.4747e-01|  3.5130e-09|  8.6917e-01|  1.0000e-02|  2.5000e-01|  2.4999e-01|   -3.558278|   -3.579884|   -4.356794|   -4.368711|   -3.852119|    0.897955|    2.346061|
|         141|  9.4738e-01|  3.5131e-09|  8.6917e-01|  1.0000e-02|  2.5000e-01|  2.4999e-01|   -3.558062|   -3.579611|   -4.356686|   -4.368577|   -3.851833|    0.894832|    2.345928|
|         142|  9.4718e-01|  3.5132e-09|  8.6917e-01|  1.0000e-02|  2.5000e-01|  2.4999e-01|   -3.557846|   -3.579339|   -4.356579|   -4.368442|   -3.851548|    0.891635|    2.345796|
|         143|  9.4718e-01|  3.5133e-09|  8.6917e-01|  1.0000e-02|  2.5000e-01|  2.4999e-01|   -3.557631|   -3.579068|   -4.356473|   -4.368307|   -3.851262|    0.888364|    2.345664|
|         144|  9.4949e-01| -3.7078e-01|  8.6917e-01|  1.0000e-02|  2.5000e-01|  2.4999e-01|   -3.557417|   -3.578797|   -4.356367|   -4.368171|   -3.850978|    0.885019|    2.345533|
|         145|  9.4927e-01|  3.5134e-09|  8.6917e-01|  1.0000e-02|  2.5000e-01|  2.4999e-01|   -3.557203|   -3.578527|   -4.356262|   -4.368034|   -3.850694|    0.881600|    2.345402|
|         146|  9.4908e-01|  3.5135e-09|  8.6917e-01|  1.0000e-02|  2.5000e-01|  2.4999e-01|   -3.556990|   -3.578258|   -4.356159|   -4.367897|   -3.850411|    0.878107|    2.345271|
|         147|  9.4908e-01|  3.5136e-09|  8.6917e-01|  1.0000e-02|  2.5000e-01|  2.4999e-01|   -3.556783|   -3.577995|   -4.356061|   -4.367760|   -3.850134|    0.874541|    2.345141|
|         148|  9.4884e-01| -1.7757e+00|  8.6917e-01|  1.0000e-02|  2.5000e-01|  2.4999e-01|   -3.556581|   -3.577738|   -4.355966|   -4.367625|   -3.849863|    0.870900|    2.345011|
|         149|  9.4863e-01|  3.5138e-09|  8.6917e-01|  1.0000e-02|  2.5000e-01|  2.4999e-01|   -3.556385|   -3.577487|   -4.355873|   -4.367494|   -3.849598|    0.867187|    2.344882|
|         150|  9.4839e-01|  3.5139e-09|  8.6917e-01|  1.0000e-02|  2.5000e-01|  2.4999e-01|   -3.556190|   -3.577237|   -4.355780|   -4.367363|   -3.849334|    0.863400|    2.344753|
+-----------------------------------------------------------------------+
|        File Writing Summary       |              Filename             |
+-----------------------------------------------------------------------+
|SU2 binary restart                 |restart_flow.dat                   |
|Paraview                           |flow.vtu                           |
|Paraview surface                   |surface_flow.vtu                   |
+-----------------------------------------------------------------------+
+-------------------------------------------------------------------------------------------------------------------------------------------------------------------------------------+
|  Inner_Iter|   Time(sec)|      Min DT|      Max DT|     Min CFL|     Max CFL|     Avg CFL|    rms[Rho]|   rms[RhoU]|   rms[RhoV]|   rms[RhoW]|   rms[RhoE]|     rms[nu]|          CD|
+-------------------------------------------------------------------------------------------------------------------------------------------------------------------------------------+
|         151|  1.0067e+00| -7.0383e-01|  8.6917e-01|  1.0000e-02|  2.5000e-01|  2.4999e-01|   -3.555996|   -3.576989|   -4.355690|   -4.367233|   -3.849071|    0.859539|    2.344624|
|         152|  1.0064e+00|  3.5140e-09|  8.6917e-01|  1.0000e-02|  2.5000e-01|  2.4999e-01|   -3.555803|   -3.576742|   -4.355600|   -4.367103|   -3.848809|    0.855604|    2.344496|
|         153|  1.0061e+00|  3.5141e-09|  8.6917e-01|  1.0000e-02|  2.5000e-01|  2.4999e-01|   -3.555610|   -3.576495|   -4.355510|   -4.366973|   -3.848548|    0.851595|    2.344368|
|         154|  1.0059e+00| -9.7451e-01|  8.6917e-01|  1.0000e-02|  2.5000e-01|  2.4999e-01|   -3.555420|   -3.576251|   -4.355421|   -4.366847|   -3.848290|    0.847510|    2.344240|
|         155|  1.0053e+00|  3.5143e-09|  8.6917e-01|  1.0000e-02|  2.5000e-01|  2.4999e-01|   -3.555231|   -3.576009|   -4.355332|   -4.366722|   -3.848032|    0.843348|    2.344113|
|         156|  1.0047e+00|  3.5144e-09|  8.6917e-01|  1.0000e-02|  2.5000e-01|  2.4999e-01|   -3.555043|   -3.575766|   -4.355244|   -4.366596|   -3.847775|    0.839107|    2.343986|
|         157|  1.0039e+00|  3.5145e-09|  8.6917e-01|  1.0000e-02|  2.5000e-01|  2.4999e-01|   -3.554853|   -3.575524|   -4.355156|   -4.366467|   -3.847517|    0.834788|    2.343859|
|         158|  1.0032e+00|  3.5146e-09|  8.6917e-01|  1.0000e-02|  2.5000e-01|  2.4999e-01|   -3.554665|   -3.575282|   -4.355070|   -4.366339|   -3.847260|    0.830391|    2.343732|
|         159|  1.0027e+00|  3.5147e-09|  8.6917e-01|  1.0000e-02|  2.5000e-01|  2.4999e-01|   -3.554477|   -3.575041|   -4.354984|   -4.366210|   -3.847004|    0.825915|    2.343605|
|         160|  1.0023e+00|  3.5148e-09|  8.6917e-01|  1.0000e-02|  2.5000e-01|  2.4999e-01|   -3.554291|   -3.574802|   -4.354902|   -4.366082|   -3.846750|    0.821359|    2.343479|
|         161|  1.0020e+00|  3.5149e-09|  8.6917e-01|  1.0000e-02|  2.5000e-01|  2.4999e-01|   -3.554106|   -3.574564|   -4.354820|   -4.365953|   -3.846497|    0.816725|    2.343353|
|         162|  1.0014e+00|  3.5150e-09|  8.6917e-01|  1.0000e-02|  2.5000e-01|  2.4999e-01|   -3.553922|   -3.574328|   -4.354743|   -4.365825|   -3.846246|    0.812010|    2.343227|
|         163|  1.0010e+00|  3.5151e-09|  8.6917e-01|  1.0000e-02|  2.5000e-01|  2.4999e-01|   -3.553743|   -3.574097|   -4.354667|   -4.365702|   -3.846000|    0.806944|    2.343101|
|         164|  1.0005e+00| -1.8099e+00|  8.6917e-01|  1.0000e-02|  2.5000e-01|  2.4999e-01|   -3.553565|   -3.573867|   -4.354592|   -4.365578|   -3.845755|    0.801780|    2.342975|
|         165|  9.9998e-01|  3.5154e-09|  8.6917e-01|  1.0000e-02|  2.5000e-01|  2.4999e-01|   -3.553392|   -3.573641|   -4.354523|   -4.365458|   -3.845516|    0.796541|    2.342849|
|         166|  9.9932e-01|  3.5155e-09|  8.6917e-01|  1.0000e-02|  2.5000e-01|  2.4999e-01|   -3.553230|   -3.573427|   -4.354467|   -4.365342|   -3.845288|    0.791225|    2.342724|
|         167|  9.9887e-01| -2.8585e+01|  8.6917e-01|  1.0000e-02|  2.5000e-01|  2.4999e-01|   -3.553072|   -3.573217|   -4.354415|   -4.365229|   -3.845065|    0.785836|    2.342598|
|         168|  9.9864e-01|  3.5157e-09|  8.6917e-01|  1.0000e-02|  2.5000e-01|  2.4999e-01|   -3.552914|   -3.573008|   -4.354363|   -4.365117|   -3.844842|    0.780372|    2.342473|
|         169|  9.9812e-01|  3.5158e-09|  8.6917e-01|  1.0000e-02|  2.5000e-01|  2.4999e-01|   -3.552757|   -3.572800|   -4.354310|   -4.365005|   -3.844620|    0.774832|    2.342348|
|         170|  9.9768e-01|  3.5159e-09|  8.6917e-01|  1.0000e-02|  2.5000e-01|  2.4999e-01|   -3.552600|   -3.572591|   -4.354257|   -4.364892|   -3.844398|    0.769218|    2.342222|
|         171|  9.9706e-01|  3.5160e-09|  8.6917e-01|  1.0000e-02|  2.5000e-01|  2.4999e-01|   -3.552442|   -3.572383|   -4.354205|   -4.364778|   -3.844176|    0.763529|    2.342097|
|         172|  9.9646e-01|  3.5161e-09|  8.6917e-01|  1.0000e-02|  2.5000e-01|  2.4999e-01|   -3.552285|   -3.572175|   -4.354151|   -4.364664|   -3.843954|    0.757766|    2.341972|
|         173|  9.9729e-01| -3.6202e-02|  8.6917e-01|  1.0000e-02|  2.5000e-01|  2.4999e-01|   -3.552128|   -3.571968|   -4.354097|   -4.364549|   -3.843733|    0.751929|    2.341847|
|         174|  9.9659e-01|  3.5164e-09|  8.6917e-01|  1.0000e-02|  2.5000e-01|  2.4999e-01|   -3.551972|   -3.571761|   -4.354044|   -4.364435|   -3.843512|    0.746017|    2.341721|
|         175|  9.9596e-01|  3.5165e-09|  8.6917e-01|  1.0000e-02|  2.5000e-01|  2.4999e-01|   -3.551816|   -3.571555|   -4.353991|   -4.364320|   -3.843292|    0.740031|    2.341596|
|         176|  9.9522e-01|  3.5166e-09|  8.6917e-01|  1.0000e-02|  2.5000e-01|  2.4999e-01|   -3.551661|   -3.571350|   -4.353939|   -4.364206|   -3.843073|    0.733972|    2.341471|
|         177|  9.9452e-01|  3.5168e-09|  8.6917e-01|  1.0000e-02|  2.5000e-01|  2.4999e-01|   -3.551506|   -3.571144|   -4.353888|   -4.364092|   -3.842853|    0.727840|    2.341346|
|         178|  9.9401e-01|  3.5169e-09|  8.6917e-01|  1.0000e-02|  2.5000e-01|  2.4999e-01|   -3.551350|   -3.570939|   -4.353836|   -4.363979|   -3.842634|    0.721636|    2.341221|
|         179|  9.9354e-01|  3.5170e-09|  8.6917e-01|  1.0000e-02|  2.5000e-01|  2.4999e-01|   -3.551195|   -3.570734|   -4.353786|   -4.363867|   -3.842415|    0.715359|    2.341095|
|         180|  9.9287e-01|  3.5171e-09|  8.6917e-01|  1.0000e-02|  2.5000e-01|  2.4999e-01|   -3.551040|   -3.570529|   -4.353736|   -4.363756|   -3.842197|    0.709011|    2.340970|
|         181|  9.9226e-01|  3.5173e-09|  8.6917e-01|  1.0000e-02|  2.5000e-01|  2.4999e-01|   -3.550886|   -3.570325|   -4.353687|   -4.363644|   -3.841979|    0.702591|    2.340845|
|         182|  9.9159e-01|  3.5174e-09|  8.6917e-01|  1.0000e-02|  2.5000e-01|  2.4999e-01|   -3.550731|   -3.570122|   -4.353638|   -4.363534|   -3.841761|    0.696099|    2.340719|
|         183|  9.9103e-01|  3.5175e-09|  8.6917e-01|  1.0000e-02|  2.5000e-01|  2.4999e-01|   -3.550597|   -3.569940|   -4.353592|   -4.363437|   -3.841565|    0.689535|    2.340594|
|         184|  9.9047e-01|  3.5177e-09|  8.6917e-01|  1.0000e-02|  2.5000e-01|  2.4999e-01|   -3.550465|   -3.569759|   -4.353547|   -4.363341|   -3.841372|    0.682898|    2.340468|
|         185|  9.9012e-01| -1.7425e+02|  8.6917e-01|  1.0000e-02|  2.5000e-01|  2.4999e-01|   -3.550334|   -3.569580|   -4.353502|   -4.363246|   -3.841179|    0.676190|    2.340343|
|         186|  9.8966e-01|  3.5179e-09|  8.6917e-01|  1.0000e-02|  2.5000e-01|  2.4999e-01|   -3.550203|   -3.569402|   -4.353458|   -4.363152|   -3.840987|    0.669411|    2.340217|
|         187|  9.8917e-01|  3.5181e-09|  8.6917e-01|  1.0000e-02|  2.5000e-01|  2.4999e-01|   -3.550073|   -3.569224|   -4.353413|   -4.363058|   -3.840795|    0.662561|    2.340092|
|         188|  9.8872e-01|  3.5182e-09|  8.6917e-01|  1.0000e-02|  2.5000e-01|  2.4999e-01|   -3.549943|   -3.569046|   -4.353368|   -4.362965|   -3.840604|    0.655642|    2.339966|
|         189|  9.8838e-01|  3.5183e-09|  8.6916e-01|  1.0000e-02|  2.5000e-01|  2.4999e-01|   -3.549818|   -3.568874|   -4.353325|   -4.362879|   -3.840418|    0.648653|    2.339840|
|         190|  9.8798e-01|  3.5185e-09|  8.6916e-01|  1.0000e-02|  2.5000e-01|  2.4999e-01|   -3.549696|   -3.568704|   -4.353284|   -4.362794|   -3.840235|    0.641595|    2.339714|
|         191|  9.8749e-01|  3.5186e-09|  8.6916e-01|  1.0000e-02|  2.5000e-01|  2.4999e-01|   -3.549579|   -3.568540|   -4.353245|   -4.362711|   -3.840058|    0.634468|    2.339588|
|         192|  9.8706e-01| -3.3908e+01|  8.6916e-01|  1.0000e-02|  2.5000e-01|  2.4999e-01|   -3.549462|   -3.568377|   -4.353209|   -4.362627|   -3.839882|    0.627272|    2.339462|
|         193|  9.8662e-01|  3.5189e-09|  8.6916e-01|  1.0000e-02|  2.5000e-01|  2.4999e-01|   -3.549350|   -3.568218|   -4.353179|   -4.362543|   -3.839711|    0.620008|    2.339336|
|         194|  9.8617e-01|  3.5190e-09|  8.6916e-01|  1.0000e-02|  2.5000e-01|  2.4999e-01|   -3.549249|   -3.568071|   -4.353157|   -4.362461|   -3.839551|    0.612675|    2.339209|
|         195|  9.8586e-01|  3.5192e-09|  8.6916e-01|  1.0000e-02|  2.5000e-01|  2.4999e-01|   -3.549152|   -3.567929|   -4.353137|   -4.362383|   -3.839395|    0.605275|    2.339083|
|         196|  9.8548e-01|  3.5193e-09|  8.6916e-01|  1.0000e-02|  2.5000e-01|  2.4999e-01|   -3.549061|   -3.567792|   -4.353121|   -4.362308|   -3.839245|    0.597808|    2.338956|
|         197|  9.8506e-01|  3.5195e-09|  8.6916e-01|  1.0000e-02|  2.5000e-01|  2.4999e-01|   -3.548969|   -3.567655|   -4.353105|   -4.362233|   -3.839096|    0.590273|    2.338830|
|         198|  9.8462e-01| -8.9084e+00|  8.6916e-01|  1.0000e-02|  2.5000e-01|  2.4999e-01|   -3.548877|   -3.567518|   -4.353090|   -4.362157|   -3.838945|    0.582671|    2.338703|
|         199|  9.8426e-01|  3.5198e-09|  8.6916e-01|  1.0000e-02|  2.5000e-01|  2.4999e-01|   -3.548784|   -3.567380|   -4.353075|   -4.362081|   -3.838794|    0.575137|    2.338577|
|         200|  9.8385e-01|  3.5199e-09|  8.6916e-01|  1.0000e-02|  2.5000e-01|  2.4999e-01|   -3.548691|   -3.567242|   -4.353061|   -4.362005|   -3.838643|    0.567272|    2.338450|
|         201|  9.8346e-01|  3.5201e-09|  8.6916e-01|  1.0000e-02|  2.5000e-01|  2.4999e-01|   -3.548599|   -3.567105|   -4.353048|   -4.361930|   -3.838493|    0.590863|    2.338323|
|         202|  9.8303e-01|  3.5202e-09|  8.6916e-01|  1.0000e-02|  2.5000e-01|  2.4999e-01|   -3.548506|   -3.566968|   -4.353036|   -4.361854|   -3.838343|    0.655648|    2.338196|
|         203|  9.8260e-01|  3.5204e-09|  8.6916e-01|  1.0000e-02|  2.5000e-01|  2.4999e-01|   -3.548413|   -3.566830|   -4.353024|   -4.361777|   -3.838192|    0.715679|    2.338069|
|         204|  9.8217e-01|  3.5205e-09|  8.6916e-01|  1.0000e-02|  2.5000e-01|  2.4999e-01|   -3.548320|   -3.566692|   -4.353014|   -4.361701|   -3.838041|    0.769807|    2.337942|
|         205|  9.8171e-01|  3.5207e-09|  8.6916e-01|  1.0000e-02|  2.5000e-01|  2.4999e-01|   -3.548226|   -3.566554|   -4.353004|   -4.361625|   -3.837890|    0.818645|    2.337815|
|         206|  9.8124e-01|  3.5208e-09|  8.6916e-01|  1.0000e-02|  2.5000e-01|  2.4999e-01|   -3.548132|   -3.566415|   -4.352994|   -4.361549|   -3.837738|    0.862873|    2.337688|
|         207|  9.8080e-01|  3.5210e-09|  8.6916e-01|  1.0000e-02|  2.5000e-01|  2.4999e-01|   -3.548037|   -3.566276|   -4.352984|   -4.361472|   -3.837586|    0.903125|    2.337560|
|         208|  9.8031e-01| -6.3010e+01|  8.6916e-01|  1.0000e-02|  2.5000e-01|  2.4999e-01|   -3.547943|   -3.566138|   -4.352976|   -4.361395|   -3.837435|    0.939949|    2.337433|
|         209|  9.7993e-01|  3.5213e-09|  8.6916e-01|  1.0000e-02|  2.5000e-01|  2.4999e-01|   -3.547851|   -3.566002|   -4.352970|   -4.361318|   -3.837285|    0.973808|    2.337306|
|         210|  9.7954e-01|  3.5215e-09|  8.6916e-01|  1.0000e-02|  2.5000e-01|  2.4999e-01|   -3.547758|   -3.565865|   -4.352967|   -4.361241|   -3.837136|    1.005083|    2.337178|
|         211|  9.7909e-01| -2.1764e+00|  8.6916e-01|  1.0000e-02|  2.5000e-01|  2.4999e-01|   -3.547666|   -3.565728|   -4.352964|   -4.361164|   -3.836987|    1.034093|    2.337051|
|         212|  9.7868e-01|  3.5218e-09|  8.6916e-01|  1.0000e-02|  2.5000e-01|  2.4999e-01|   -3.547573|   -3.565592|   -4.352962|   -4.361087|   -3.836837|    1.061095|    2.336924|
|         213|  9.7820e-01|  3.5220e-09|  8.6916e-01|  1.0000e-02|  2.5000e-01|  2.4999e-01|   -3.547480|   -3.565456|   -4.352960|   -4.361011|   -3.836688|    1.086301|    2.336796|
|         214|  9.7770e-01|  3.5221e-09|  8.6916e-01|  1.0000e-02|  2.5000e-01|  2.4999e-01|   -3.547388|   -3.565320|   -4.352958|   -4.360936|   -3.836539|    1.109867|    2.336669|
|         215|  9.7719e-01|  3.5223e-09|  8.6916e-01|  1.0000e-02|  2.5000e-01|  2.4999e-01|   -3.547296|   -3.565184|   -4.352957|   -4.360863|   -3.836390|    1.131897|    2.336541|
|         216|  9.7675e-01|  3.5225e-09|  8.6916e-01|  1.0000e-02|  2.5000e-01|  2.4999e-01|   -3.547203|   -3.565047|   -4.352956|   -4.360790|   -3.836241|    1.152413|    2.336414|
|         217|  9.7636e-01|  3.5226e-09|  8.6916e-01|  1.0000e-02|  2.5000e-01|  2.4999e-01|   -3.547111|   -3.564911|   -4.352955|   -4.360717|   -3.836093|    1.171313|    2.336286|
|         218|  9.7590e-01|  3.5228e-09|  8.6916e-01|  1.0000e-02|  2.5000e-01|  2.4999e-01|   -3.547018|   -3.564775|   -4.352955|   -4.360646|   -3.835944|    1.188271|    2.336159|
|         219|  9.7542e-01| -2.5568e+00|  8.6916e-01|  1.0000e-02|  2.5000e-01|  2.4999e-01|   -3.546925|   -3.564640|   -4.352955|   -4.360574|   -3.835795|    1.202541|    2.336032|
|         220|  9.7505e-01| -1.9574e+01|  8.6916e-01|  1.0000e-02|  2.5000e-01|  2.4999e-01|   -3.546841|   -3.564512|   -4.352956|   -4.360507|   -3.835655|    1.213278|    2.335904|
|         221|  9.7462e-01| -1.5451e+01|  8.6916e-01|  1.0000e-02|  2.5000e-01|  2.4999e-01|   -3.546760|   -3.564388|   -4.352962|   -4.360441|   -3.835517|    1.215045|    2.335777|
|         222|  9.7415e-01| -9.9070e+00|  8.6916e-01|  1.0000e-02|  2.5000e-01|  2.4999e-01|   -3.546681|   -3.564265|   -4.352969|   -4.360377|   -3.835382|    1.202709|    2.335650|
|         223|  9.7375e-01| -8.3935e+00|  8.6916e-01|  1.0000e-02|  2.5000e-01|  2.4999e-01|   -3.546602|   -3.564143|   -4.352976|   -4.360313|   -3.835247|    1.158488|    2.335523|
|         224|  9.7333e-01| -7.7398e+00|  8.6916e-01|  1.0000e-02|  2.5000e-01|  2.4999e-01|   -3.546523|   -3.564021|   -4.352984|   -4.360250|   -3.835112|    1.029928|    2.335395|
|         225|  9.7371e-01| -7.4121e+00|  8.6916e-01|  1.0000e-02|  2.5000e-01|  2.4999e-01|   -3.546444|   -3.563899|   -4.352992|   -4.360189|   -3.834977|    0.471741|    2.335268|
|         226|  9.7360e-01| -7.5100e+00|  8.6916e-01|  1.0000e-02|  2.5000e-01|  2.4999e-01|   -3.546370|   -3.563783|   -4.353003|   -4.360131|   -3.834849|    0.342052|    2.335142|
|         227|  9.7335e-01| -8.1392e+00|  8.6916e-01|  1.0000e-02|  2.5000e-01|  2.4999e-01|   -3.546300|   -3.563670|   -4.353016|   -4.360075|   -3.834723|    0.331149|    2.335015|
|         228|  9.7309e-01| -9.5056e+00|  8.6916e-01|  1.0000e-02|  2.5000e-01|  2.4999e-01|   -3.546230|   -3.563558|   -4.353030|   -4.360020|   -3.834599|    0.321486|    2.334888|
|         229|  9.7285e-01| -1.2161e+01|  8.6916e-01|  1.0000e-02|  2.5000e-01|  2.4999e-01|   -3.546162|   -3.563447|   -4.353047|   -4.359967|   -3.834476|    0.311781|    2.334761|
|         230|  9.7259e-01| -1.7584e+01|  8.6916e-01|  1.0000e-02|  2.5000e-01|  2.4999e-01|   -3.546094|   -3.563337|   -4.353064|   -4.359915|   -3.834354|    0.302087|    2.334635|
|         231|  9.7240e-01| -3.1957e+01|  8.6916e-01|  1.0000e-02|  2.5000e-01|  2.4999e-01|   -3.546026|   -3.563227|   -4.353081|   -4.359864|   -3.834232|    0.292424|    2.334509|
|         232|  9.7215e-01| -1.3749e+02|  8.6916e-01|  1.0000e-02|  2.5000e-01|  2.4999e-01|   -3.545959|   -3.563118|   -4.353099|   -4.359815|   -3.834111|    0.282808|    2.334382|
|         233|  9.7196e-01|  3.5254e-09|  8.6916e-01|  1.0000e-02|  2.5000e-01|  2.4999e-01|   -3.545893|   -3.563011|   -4.353117|   -4.359767|   -3.833992|    0.273259|    2.334256|
|         234|  9.7183e-01|  3.5256e-09|  8.6916e-01|  1.0000e-02|  2.5000e-01|  2.4999e-01|   -3.545829|   -3.562904|   -4.353135|   -4.359721|   -3.833873|    0.263799|    2.334131|
|         235|  9.7163e-01|  3.5258e-09|  8.6916e-01|  1.0000e-02|  2.5000e-01|  2.4999e-01|   -3.545764|   -3.562798|   -4.353154|   -4.359677|   -3.833756|    0.254449|    2.334005|
|         236|  9.7139e-01|  3.5260e-09|  8.6916e-01|  1.0000e-02|  2.5000e-01|  2.4999e-01|   -3.545700|   -3.562693|   -4.353172|   -4.359633|   -3.833638|    0.245231|    2.333879|
|         237|  9.7130e-01|  3.5262e-09|  8.6916e-01|  1.0000e-02|  2.5000e-01|  2.4999e-01|   -3.545636|   -3.562587|   -4.353192|   -4.359589|   -3.833521|    0.236169|    2.333754|
|         238|  9.7109e-01|  3.5264e-09|  8.6916e-01|  1.0000e-02|  2.5000e-01|  2.4999e-01|   -3.545574|   -3.562484|   -4.353214|   -4.359547|   -3.833406|    0.227289|    2.333629|
|         239|  9.7088e-01|  3.5266e-09|  8.6916e-01|  1.0000e-02|  2.5000e-01|  2.4999e-01|   -3.545520|   -3.562389|   -4.353242|   -4.359512|   -3.833300|    0.218617|    2.333504|
|         240|  9.7066e-01|  3.5267e-09|  8.6916e-01|  1.0000e-02|  2.5000e-01|  2.4999e-01|   -3.545467|   -3.562295|   -4.353271|   -4.359477|   -3.833194|    0.210178|    2.333379|
|         241|  9.7044e-01|  3.5269e-09|  8.6916e-01|  1.0000e-02|  2.5000e-01|  2.4999e-01|   -3.545415|   -3.562202|   -4.353301|   -4.359445|   -3.833090|    0.202000|    2.333255|
|         242|  9.7026e-01|  3.5271e-09|  8.6916e-01|  1.0000e-02|  2.5000e-01|  2.4999e-01|   -3.545365|   -3.562112|   -4.353332|   -4.359414|   -3.832989|    0.194106|    2.333131|
|         243|  9.7015e-01|  3.5273e-09|  8.6916e-01|  1.0000e-02|  2.5000e-01|  2.4999e-01|   -3.545317|   -3.562024|   -4.353365|   -4.359386|   -3.832889|    0.186524|    2.333007|
|         244|  9.6993e-01|  3.5275e-09|  8.6916e-01|  1.0000e-02|  2.5000e-01|  2.4999e-01|   -3.545270|   -3.561937|   -4.353398|   -4.359360|   -3.832791|    0.179277|    2.332883|
|         245|  9.6971e-01|  3.5277e-09|  8.6916e-01|  1.0000e-02|  2.5000e-01|  2.4999e-01|   -3.545224|   -3.561851|   -4.353431|   -4.359335|   -3.832694|    0.172386|    2.332760|
|         246|  9.6953e-01|  3.5279e-09|  8.6916e-01|  1.0000e-02|  2.5000e-01|  2.4999e-01|   -3.545184|   -3.561771|   -4.353475|   -4.359311|   -3.832604|    0.165873|    2.332637|
|         247|  9.6931e-01|  3.5281e-09|  8.6916e-01|  1.0000e-02|  2.5000e-01|  2.4999e-01|   -3.545146|   -3.561693|   -4.353522|   -4.359288|   -3.832516|    0.159909|    2.332514|
|         248|  9.6903e-01|  3.5283e-09|  8.6916e-01|  1.0000e-02|  2.5000e-01|  2.4999e-01|   -3.545109|   -3.561616|   -4.353570|   -4.359267|   -3.832428|    0.156041|    2.332392|
|         249|  9.6880e-01|  3.5285e-09|  8.6916e-01|  1.0000e-02|  2.5000e-01|  2.4999e-01|   -3.545072|   -3.561540|   -4.353617|   -4.359248|   -3.832342|    0.152490|    2.332270|
|         250|  9.6859e-01|  3.5287e-09|  8.6916e-01|  1.0000e-02|  2.5000e-01|  2.4999e-01|   -3.545036|   -3.561465|   -4.353665|   -4.359230|   -3.832257|    0.149199|    2.332148|
|         251|  9.6841e-01|  3.5289e-09|  8.6916e-01|  1.0000e-02|  2.5000e-01|  2.4999e-01|   -3.545001|   -3.561389|   -4.353713|   -4.359213|   -3.832171|    0.146165|    2.332026|
|         252|  9.6820e-01|  3.5291e-09|  8.6916e-01|  1.0000e-02|  2.5000e-01|  2.4999e-01|   -3.544965|   -3.561314|   -4.353761|   -4.359196|   -3.832086|    0.143474|    2.331905|
|         253|  9.6799e-01|  3.5293e-09|  8.6915e-01|  1.0000e-02|  2.5000e-01|  2.4999e-01|   -3.544929|   -3.561240|   -4.353809|   -4.359180|   -3.832002|    0.141178|    2.331784|
|         254|  9.6777e-01|  3.5295e-09|  8.6915e-01|  1.0000e-02|  2.5000e-01|  2.4999e-01|   -3.544894|   -3.561165|   -4.353857|   -4.359164|   -3.831917|    0.139165|    2.331664|
|         255|  9.6757e-01|  3.5297e-09|  8.6915e-01|  1.0000e-02|  2.5000e-01|  2.4999e-01|   -3.544859|   -3.561091|   -4.353905|   -4.359149|   -3.831834|    0.137434|    2.331544|
|         256|  9.6738e-01|  3.5299e-09|  8.6915e-01|  1.0000e-02|  2.5000e-01|  2.4999e-01|   -3.544824|   -3.561018|   -4.353954|   -4.359136|   -3.831750|    0.135978|    2.331424|
|         257|  9.6716e-01|  3.5301e-09|  8.6915e-01|  1.0000e-02|  2.5000e-01|  2.4999e-01|   -3.544790|   -3.560945|   -4.354002|   -4.359124|   -3.831669|    0.134774|    2.331305|
|         258|  9.6696e-01|  3.5303e-09|  8.6915e-01|  1.0000e-02|  2.5000e-01|  2.4999e-01|   -3.544757|   -3.560874|   -4.354052|   -4.359115|   -3.831588|    0.133807|    2.331186|
|         259|  9.6676e-01|  3.5305e-09|  8.6915e-01|  1.0000e-02|  2.5000e-01|  2.4999e-01|   -3.544725|   -3.560804|   -4.354101|   -4.359107|   -3.831508|    0.133065|    2.331067|
|         260|  9.6652e-01|  3.5307e-09|  8.6915e-01|  1.0000e-02|  2.5000e-01|  2.4999e-01|   -3.544693|   -3.560734|   -4.354150|   -4.359101|   -3.831429|    0.132528|    2.330949|
|         261|  9.6632e-01|  3.5309e-09|  8.6915e-01|  1.0000e-02|  2.5000e-01|  2.4999e-01|   -3.544662|   -3.560664|   -4.354199|   -4.359095|   -3.831350|    0.132181|    2.330831|
|         262|  9.6613e-01|  3.5311e-09|  8.6915e-01|  1.0000e-02|  2.5000e-01|  2.4999e-01|   -3.544631|   -3.560596|   -4.354249|   -4.359092|   -3.831272|    0.132007|    2.330714|
|         263|  9.6591e-01|  3.5313e-09|  8.6915e-01|  1.0000e-02|  2.5000e-01|  2.4999e-01|   -3.544602|   -3.560528|   -4.354300|   -4.359090|   -3.831196|    0.131987|    2.330597|
|         264|  9.6571e-01|  3.5315e-09|  8.6915e-01|  1.0000e-02|  2.5000e-01|  2.4999e-01|   -3.544572|   -3.560460|   -4.354351|   -4.359089|   -3.831119|    0.132104|    2.330481|
|         265|  9.6548e-01|  3.5317e-09|  8.6915e-01|  1.0000e-02|  2.5000e-01|  2.4999e-01|   -3.544542|   -3.560393|   -4.354404|   -4.359090|   -3.831043|    0.132339|    2.330365|
|         266|  9.6536e-01|  3.5319e-09|  8.6915e-01|  1.0000e-02|  2.5000e-01|  2.4999e-01|   -3.544514|   -3.560327|   -4.354458|   -4.359092|   -3.830969|    0.132678|    2.330249|
|         267|  9.6517e-01|  3.5321e-09|  8.6915e-01|  1.0000e-02|  2.5000e-01|  2.4999e-01|   -3.544489|   -3.560264|   -4.354514|   -4.359099|   -3.830898|    0.133102|    2.330134|
|         268|  9.6495e-01|  3.5323e-09|  8.6915e-01|  1.0000e-02|  2.5000e-01|  2.4999e-01|   -3.544465|   -3.560203|   -4.354572|   -4.359109|   -3.830828|    0.133595|    2.330019|
|         269|  9.6474e-01|  3.5325e-09|  8.6915e-01|  1.0000e-02|  2.5000e-01|  2.4999e-01|   -3.544441|   -3.560142|   -4.354629|   -4.359121|   -3.830759|    0.134143|    2.329905|
|         270|  9.6452e-01|  3.5327e-09|  8.6915e-01|  1.0000e-02|  2.5000e-01|  2.4999e-01|   -3.544418|   -3.560081|   -4.354687|   -4.359134|   -3.830690|    0.134733|    2.329791|
|         271|  9.6432e-01|  3.5329e-09|  8.6915e-01|  1.0000e-02|  2.5000e-01|  2.4999e-01|   -3.544395|   -3.560021|   -4.354746|   -4.359149|   -3.830623|    0.135353|    2.329678|
|         272|  9.6409e-01|  3.5332e-09|  8.6915e-01|  1.0000e-02|  2.5000e-01|  2.4999e-01|   -3.544374|   -3.559962|   -4.354806|   -4.359165|   -3.830556|    0.135994|    2.329565|
|         273|  9.6390e-01|  3.5334e-09|  8.6915e-01|  1.0000e-02|  2.5000e-01|  2.4999e-01|   -3.544356|   -3.559907|   -4.354870|   -4.359182|   -3.830494|    0.136639|    2.329453|
|         274|  9.6367e-01|  3.5336e-09|  8.6915e-01|  1.0000e-02|  2.5000e-01|  2.4999e-01|   -3.544340|   -3.559854|   -4.354936|   -4.359199|   -3.830434|    0.137281|    2.329341|
|         275|  9.6349e-01|  3.5338e-09|  8.6915e-01|  1.0000e-02|  2.5000e-01|  2.4999e-01|   -3.544324|   -3.559802|   -4.355002|   -4.359219|   -3.830375|    0.137908|    2.329230|
|         276|  9.6328e-01|  3.5340e-09|  8.6915e-01|  1.0000e-02|  2.5000e-01|  2.4999e-01|   -3.544315|   -3.559756|   -4.355071|   -4.359247|   -3.830321|    0.138511|    2.329119|
|         277|  9.6310e-01|  3.5342e-09|  8.6915e-01|  1.0000e-02|  2.5000e-01|  2.4999e-01|   -3.544312|   -3.559717|   -4.355144|   -4.359283|   -3.830275|    0.139082|    2.329008|
|         278|  9.6291e-01|  3.5344e-09|  8.6915e-01|  1.0000e-02|  2.5000e-01|  2.4999e-01|   -3.544311|   -3.559679|   -4.355219|   -4.359319|   -3.830230|    0.139612|    2.328898|
|         279|  9.6273e-01|  3.5346e-09|  8.6915e-01|  1.0000e-02|  2.5000e-01|  2.4999e-01|   -3.544313|   -3.559645|   -4.355296|   -4.359361|   -3.830189|    0.140124|    2.328789|
|         280|  9.6256e-01|  3.5349e-09|  8.6915e-01|  1.0000e-02|  2.5000e-01|  2.4999e-01|   -3.544317|   -3.559613|   -4.355373|   -4.359407|   -3.830150|    0.140615|    2.328680|
|         281|  9.6235e-01|  3.5351e-09|  8.6915e-01|  1.0000e-02|  2.5000e-01|  2.4999e-01|   -3.544327|   -3.559586|   -4.355454|   -4.359457|   -3.830117|    0.141082|    2.328572|
|         282|  9.6216e-01|  3.5353e-09|  8.6915e-01|  1.0000e-02|  2.5000e-01|  2.4999e-01|   -3.544347|   -3.559571|   -4.355543|   -4.359511|   -3.830094|    0.141523|    2.328464|
|         283|  9.6197e-01|  3.5355e-09|  8.6915e-01|  1.0000e-02|  2.5000e-01|  2.4999e-01|   -3.544373|   -3.559560|   -4.355634|   -4.359569|   -3.830077|    0.141933|    2.328356|
|         284|  9.6176e-01|  3.5357e-09|  8.6915e-01|  1.0000e-02|  2.5000e-01|  2.4999e-01|   -3.544401|   -3.559553|   -4.355726|   -4.359630|   -3.830064|    0.142310|    2.328249|
|         285|  9.6154e-01|  3.5359e-09|  8.6915e-01|  1.0000e-02|  2.5000e-01|  2.4999e-01|   -3.544429|   -3.559545|   -4.355819|   -4.359690|   -3.830049|    0.142652|    2.328143|
|         286|  9.6135e-01|  3.5362e-09|  8.6915e-01|  1.0000e-02|  2.5000e-01|  2.4999e-01|   -3.544456|   -3.559537|   -4.355910|   -4.359752|   -3.830035|    0.142957|    2.328037|
|         287|  9.6115e-01|  3.5364e-09|  8.6915e-01|  1.0000e-02|  2.5000e-01|  2.4999e-01|   -3.544489|   -3.559534|   -4.356003|   -4.359822|   -3.830025|    0.143226|    2.327932|
|         288|  9.6096e-01|  3.5366e-09|  8.6915e-01|  1.0000e-02|  2.5000e-01|  2.4999e-01|   -3.544522|   -3.559531|   -4.356097|   -4.359895|   -3.830016|    0.143459|    2.327827|
|         289|  9.6099e-01|  3.5368e-09|  8.6915e-01|  1.0000e-02|  2.5000e-01|  2.4999e-01|   -3.544554|   -3.559527|   -4.356189|   -4.359969|   -3.830007|    0.143656|    2.327722|
|         290|  9.6092e-01|  3.5370e-09|  8.6915e-01|  1.0000e-02|  2.5000e-01|  2.4999e-01|   -3.544585|   -3.559523|   -4.356282|   -4.360043|   -3.829996|    0.143818|    2.327619|
|         291|  9.6081e-01|  3.5373e-09|  8.6915e-01|  1.0000e-02|  2.5000e-01|  2.4999e-01|   -3.544615|   -3.559518|   -4.356374|   -4.360117|   -3.829985|    0.143949|    2.327515|
|         292|  9.6063e-01|  3.5375e-09|  8.6915e-01|  1.0000e-02|  2.5000e-01|  2.4999e-01|   -3.544647|   -3.559514|   -4.356468|   -4.360192|   -3.829976|    0.144067|    2.327413|
|         293|  9.6038e-01|  3.5377e-09|  8.6915e-01|  1.0000e-02|  2.5000e-01|  2.4999e-01|   -3.544679|   -3.559510|   -4.356562|   -4.360268|   -3.829965|    0.144199|    2.327310|
|         294|  9.6005e-01|  3.5379e-09|  8.6915e-01|  1.0000e-02|  2.5000e-01|  2.4999e-01|   -3.544730|   -3.559528|   -4.356659|   -4.360349|   -3.829976|    0.144352|    2.327208|
|         295|  9.5973e-01|  3.5382e-09|  8.6915e-01|  1.0000e-02|  2.5000e-01|  2.4999e-01|   -3.544791|   -3.559556|   -4.356757|   -4.360432|   -3.829996|    0.144536|    2.327107|
|         296|  9.5942e-01|  3.5384e-09|  8.6915e-01|  1.0000e-02|  2.5000e-01|  2.4999e-01|   -3.544851|   -3.559583|   -4.356855|   -4.360516|   -3.830015|    0.144759|    2.327006|
|         297|  9.5911e-01| -7.2587e+00|  8.6915e-01|  1.0000e-02|  2.5000e-01|  2.4999e-01|   -3.544911|   -3.559611|   -4.356956|   -4.360601|   -3.830034|    0.145033|    2.326906|
|         298|  9.5882e-01|  3.5388e-09|  8.6915e-01|  1.0000e-02|  2.5000e-01|  2.4999e-01|   -3.544972|   -3.559638|   -4.357058|   -4.360690|   -3.830054|    0.145369|    2.326806|
|         299|  9.5855e-01| -4.2226e+02|  8.6915e-01|  1.0000e-02|  2.5000e-01|  2.4999e-01|   -3.545031|   -3.559664|   -4.357161|   -4.360780|   -3.830072|    0.145780|    2.326707|
|         300|  9.5828e-01| -1.9466e+01|  8.6915e-01|  1.0000e-02|  2.5000e-01|  2.4999e-01|   -3.545089|   -3.559690|   -4.357266|   -4.360871|   -3.830090|    0.146273|    2.326608|
+-----------------------------------------------------------------------+
|        File Writing Summary       |              Filename             |
+-----------------------------------------------------------------------+
|SU2 binary restart                 |restart_flow.dat                   |
|Paraview                           |flow.vtu                           |
|Paraview surface                   |surface_flow.vtu                   |
+-----------------------------------------------------------------------+
+-------------------------------------------------------------------------------------------------------------------------------------------------------------------------------------+
|  Inner_Iter|   Time(sec)|      Min DT|      Max DT|     Min CFL|     Max CFL|     Avg CFL|    rms[Rho]|   rms[RhoU]|   rms[RhoV]|   rms[RhoW]|   rms[RhoE]|     rms[nu]|          CD|
+-------------------------------------------------------------------------------------------------------------------------------------------------------------------------------------+
|         301|  9.8763e-01| -7.9874e+00|  8.6914e-01|  1.0000e-02|  2.5000e-01|  2.4999e-01|   -3.545147|   -3.559715|   -4.357372|   -4.360962|   -3.830107|    0.146860|    2.326510|
|         302|  9.8732e-01| -4.1801e+00|  8.6914e-01|  1.0000e-02|  2.5000e-01|  2.4999e-01|   -3.545204|   -3.559739|   -4.357478|   -4.361054|   -3.830124|    0.147552|    2.326412|
|         303|  9.8708e-01| -2.3507e+00|  8.6914e-01|  1.0000e-02|  2.5000e-01|  2.4999e-01|   -3.545259|   -3.559761|   -4.357583|   -4.361147|   -3.830138|    0.148353|    2.326315|
|         304|  9.8694e-01| -1.3048e+00|  8.6914e-01|  1.0000e-02|  2.5000e-01|  2.4999e-01|   -3.545314|   -3.559782|   -4.357690|   -4.361240|   -3.830152|    0.149278|    2.326219|
|         305|  9.8666e-01| -6.5231e-01|  8.6914e-01|  1.0000e-02|  2.5000e-01|  2.4999e-01|   -3.545368|   -3.559803|   -4.357798|   -4.361334|   -3.830166|    0.150332|    2.326122|
|         306|  9.8634e-01| -5.0136e+01|  8.6914e-01|  1.0000e-02|  2.5000e-01|  2.4999e-01|   -3.545422|   -3.559823|   -4.357906|   -4.361428|   -3.830178|    0.151523|    2.326027|
|         307|  9.8607e-01|  3.5409e-09|  8.6914e-01|  1.0000e-02|  2.5000e-01|  2.4999e-01|   -3.545479|   -3.559846|   -4.358016|   -4.361527|   -3.830195|    0.152855|    2.325931|
|         308|  9.8573e-01|  3.5411e-09|  8.6914e-01|  1.0000e-02|  2.5000e-01|  2.4999e-01|   -3.545537|   -3.559871|   -4.358130|   -4.361626|   -3.830212|    0.154336|    2.325837|
|         309|  9.8543e-01|  3.5413e-09|  8.6914e-01|  1.0000e-02|  2.5000e-01|  2.4999e-01|   -3.545595|   -3.559896|   -4.358246|   -4.361725|   -3.830230|    0.155969|    2.325742|
|         310|  9.8516e-01|  3.5416e-09|  8.6914e-01|  1.0000e-02|  2.5000e-01|  2.4999e-01|   -3.545652|   -3.559919|   -4.358362|   -4.361825|   -3.830246|    0.157757|    2.325649|
|         311|  9.8491e-01|  3.5418e-09|  8.6914e-01|  1.0000e-02|  2.5000e-01|  2.4999e-01|   -3.545708|   -3.559941|   -4.358479|   -4.361926|   -3.830262|    0.159702|    2.325555|
|         312|  9.8468e-01|  3.5420e-09|  8.6914e-01|  1.0000e-02|  2.5000e-01|  2.4999e-01|   -3.545763|   -3.559962|   -4.358596|   -4.362027|   -3.830276|    0.161806|    2.325463|
|         313|  9.8441e-01|  3.5422e-09|  8.6914e-01|  1.0000e-02|  2.5000e-01|  2.4999e-01|   -3.545817|   -3.559982|   -4.358714|   -4.362129|   -3.830289|    0.164068|    2.325370|
|         314|  9.8408e-01|  3.5425e-09|  8.6914e-01|  1.0000e-02|  2.5000e-01|  2.4999e-01|   -3.545871|   -3.560002|   -4.358833|   -4.362233|   -3.830302|    0.166486|    2.325279|
|         315|  9.8374e-01|  3.5427e-09|  8.6914e-01|  1.0000e-02|  2.5000e-01|  2.4999e-01|   -3.545924|   -3.560021|   -4.358952|   -4.362337|   -3.830314|    0.169056|    2.325187|
|         316|  9.8342e-01|  3.5429e-09|  8.6914e-01|  1.0000e-02|  2.5000e-01|  2.4999e-01|   -3.545977|   -3.560040|   -4.359072|   -4.362443|   -3.830326|    0.171793|    2.325096|
|         317|  9.8309e-01|  3.5432e-09|  8.6914e-01|  1.0000e-02|  2.5000e-01|  2.4999e-01|   -3.546028|   -3.560057|   -4.359193|   -4.362550|   -3.830337|    0.174692|    2.325006|
|         318|  9.8273e-01|  3.5434e-09|  8.6914e-01|  1.0000e-02|  2.5000e-01|  2.4999e-01|   -3.546080|   -3.560075|   -4.359315|   -4.362657|   -3.830348|    0.177740|    2.324916|
|         319|  9.8239e-01|  3.5436e-09|  8.6914e-01|  1.0000e-02|  2.5000e-01|  2.4999e-01|   -3.546134|   -3.560094|   -4.359439|   -4.362765|   -3.830360|    0.180932|    2.324827|
|         320|  9.8209e-01|  3.5439e-09|  8.6914e-01|  1.0000e-02|  2.5000e-01|  2.4999e-01|   -3.546187|   -3.560113|   -4.359564|   -4.362875|   -3.830373|    0.184261|    2.324738|
|         321|  9.8180e-01|  3.5441e-09|  8.6914e-01|  1.0000e-02|  2.5000e-01|  2.4999e-01|   -3.546240|   -3.560133|   -4.359691|   -4.362988|   -3.830386|    0.187722|    2.324649|
|         322|  9.8151e-01|  3.5443e-09|  8.6914e-01|  1.0000e-02|  2.5000e-01|  2.4999e-01|   -3.546294|   -3.560152|   -4.359820|   -4.363103|   -3.830398|    0.191305|    2.324561|
|         323|  9.8121e-01|  3.5446e-09|  8.6914e-01|  1.0000e-02|  2.5000e-01|  2.4999e-01|   -3.546348|   -3.560172|   -4.359950|   -4.363219|   -3.830411|    0.195003|    2.324473|
|         324|  9.8085e-01|  3.5448e-09|  8.6914e-01|  1.0000e-02|  2.5000e-01|  2.4999e-01|   -3.546402|   -3.560192|   -4.360082|   -4.363339|   -3.830425|    0.198805|    2.324386|
|         325|  9.8046e-01|  3.5450e-09|  8.6914e-01|  1.0000e-02|  2.5000e-01|  2.4999e-01|   -3.546457|   -3.560212|   -4.360215|   -4.363460|   -3.830439|    0.202735|    2.324300|
|         326|  9.8011e-01|  3.5453e-09|  8.6914e-01|  1.0000e-02|  2.5000e-01|  2.4999e-01|   -3.546511|   -3.560231|   -4.360351|   -4.363583|   -3.830453|    0.206715|    2.324213|
|         327|  9.7973e-01|  3.5455e-09|  8.6914e-01|  1.0000e-02|  2.5000e-01|  2.4999e-01|   -3.546565|   -3.560251|   -4.360487|   -4.363708|   -3.830466|    0.210768|    2.324127|
|         328|  9.7935e-01|  3.5457e-09|  8.6914e-01|  1.0000e-02|  2.5000e-01|  2.4999e-01|   -3.546620|   -3.560271|   -4.360624|   -4.363835|   -3.830480|    0.214880|    2.324042|
|         329|  9.7901e-01|  3.5460e-09|  8.6914e-01|  1.0000e-02|  2.5000e-01|  2.4999e-01|   -3.546674|   -3.560291|   -4.360763|   -4.363962|   -3.830494|    0.219040|    2.323957|
|         330|  9.7863e-01|  3.5462e-09|  8.6914e-01|  1.0000e-02|  2.5000e-01|  2.4999e-01|   -3.546729|   -3.560311|   -4.360903|   -4.364092|   -3.830508|    0.223235|    2.323873|
|         331|  9.7828e-01|  3.5464e-09|  8.6914e-01|  1.0000e-02|  2.5000e-01|  2.4999e-01|   -3.546784|   -3.560332|   -4.361044|   -4.364221|   -3.830523|    0.227453|    2.323789|
|         332|  9.7794e-01|  3.5467e-09|  8.6914e-01|  1.0000e-02|  2.5000e-01|  2.4999e-01|   -3.546840|   -3.560353|   -4.361185|   -4.364351|   -3.830537|    0.231683|    2.323705|
|         333|  9.7763e-01|  3.5469e-09|  8.6914e-01|  1.0000e-02|  2.5000e-01|  2.4999e-01|   -3.546895|   -3.560373|   -4.361328|   -4.364482|   -3.830551|    0.235910|    2.323622|
|         334|  9.7732e-01|  3.5472e-09|  8.6914e-01|  1.0000e-02|  2.5000e-01|  2.4999e-01|   -3.546952|   -3.560395|   -4.361475|   -4.364614|   -3.830567|    0.240121|    2.323539|
|         335|  9.7698e-01|  3.5474e-09|  8.6914e-01|  1.0000e-02|  2.5000e-01|  2.4999e-01|   -3.547008|   -3.560417|   -4.361624|   -4.364748|   -3.830583|    0.244302|    2.323457|
|         336|  9.7668e-01|  3.5476e-09|  8.6914e-01|  1.0000e-02|  2.5000e-01|  2.4999e-01|   -3.547066|   -3.560440|   -4.361775|   -4.364885|   -3.830600|    0.248442|    2.323375|
|         337|  9.7633e-01|  3.5479e-09|  8.6914e-01|  1.0000e-02|  2.5000e-01|  2.4999e-01|   -3.547124|   -3.560463|   -4.361927|   -4.365023|   -3.830617|    0.252526|    2.323293|
|         338|  9.7600e-01|  3.5481e-09|  8.6914e-01|  1.0000e-02|  2.5000e-01|  2.4999e-01|   -3.547182|   -3.560486|   -4.362080|   -4.365161|   -3.830634|    0.256542|    2.323212|
|         339|  9.7566e-01|  3.5483e-09|  8.6914e-01|  1.0000e-02|  2.5000e-01|  2.4999e-01|   -3.547241|   -3.560510|   -4.362235|   -4.365301|   -3.830652|    0.260478|    2.323131|
|         340|  9.7530e-01|  3.5486e-09|  8.6914e-01|  1.0000e-02|  2.5000e-01|  2.4999e-01|   -3.547300|   -3.560534|   -4.362391|   -4.365442|   -3.830670|    0.264327|    2.323051|
|         341|  9.7497e-01|  3.5488e-09|  8.6914e-01|  1.0000e-02|  2.5000e-01|  2.4999e-01|   -3.547358|   -3.560557|   -4.362549|   -4.365584|   -3.830687|    0.268078|    2.322971|
|         342|  9.7463e-01|  3.5490e-09|  8.6913e-01|  1.0000e-02|  2.5000e-01|  2.4999e-01|   -3.547416|   -3.560581|   -4.362709|   -4.365726|   -3.830704|    0.271718|    2.322892|
|         343|  9.7430e-01| -7.2014e-01|  8.6913e-01|  1.0000e-02|  2.5000e-01|  2.4999e-01|   -3.547487|   -3.560616|   -4.362879|   -4.365873|   -3.830734|    0.275239|    2.322813|
|         344|  9.7397e-01|  3.5495e-09|  8.6913e-01|  1.0000e-02|  2.5000e-01|  2.4999e-01|   -3.547562|   -3.560657|   -4.363054|   -4.366021|   -3.830768|    0.278631|    2.322734|
|         345|  9.7364e-01|  3.5498e-09|  8.6913e-01|  1.0000e-02|  2.5000e-01|  2.4999e-01|   -3.547638|   -3.560698|   -4.363230|   -4.366171|   -3.830803|    0.281893|    2.322656|
|         346|  9.7334e-01|  3.5500e-09|  8.6913e-01|  1.0000e-02|  2.5000e-01|  2.4999e-01|   -3.547714|   -3.560740|   -4.363407|   -4.366323|   -3.830838|    0.285012|    2.322578|
|         347|  9.7301e-01|  3.5502e-09|  8.6913e-01|  1.0000e-02|  2.5000e-01|  2.4999e-01|   -3.547791|   -3.560782|   -4.363586|   -4.366477|   -3.830873|    0.287982|    2.322500|
|         348|  9.7266e-01|  3.5505e-09|  8.6913e-01|  1.0000e-02|  2.5000e-01|  2.4999e-01|   -3.547869|   -3.560826|   -4.363766|   -4.366632|   -3.830910|    0.290796|    2.322423|
|         349|  9.7239e-01|  3.5507e-09|  8.6913e-01|  1.0000e-02|  2.5000e-01|  2.4999e-01|   -3.547949|   -3.560871|   -4.363948|   -4.366789|   -3.830949|    0.293450|    2.322347|
[...]
|        1637|  1.9303e+00| -1.2902e+02|  3.4757e-02|  1.0000e-02|  1.0500e-02|  1.0500e-02|    5.997641|   10.073566|    9.224472|    9.581690|   13.953757|    3.062440|    2.399325|
|        1638|  1.9320e+00| -9.9163e+00|  3.6495e-02|  1.0000e-02|  1.1025e-02|  1.1024e-02|    6.018910|   10.126904|    9.274086|    9.633023|   14.019094|    3.064807|    2.399336|
|        1639|  1.9330e+00| -1.1192e+01|  3.8320e-02|  1.0000e-02|  1.1576e-02|  1.1575e-02|    6.019494|   10.127368|    9.274479|    9.633496|   14.019568|    3.071626|    2.399346|
|        1640|  1.9339e+00| -1.1519e+01|  4.0236e-02|  1.0000e-02|  1.2155e-02|  1.2154e-02|    6.065548|   10.193421|    9.344076|    9.698688|   14.103556|    3.077545|    2.399358|
|        1641|  1.9379e+00| -5.6328e+01|  4.2248e-02|  1.0000e-02|  1.2763e-02|  1.2761e-02|    6.114747|   10.262382|    9.427690|    9.765890|   14.191593|    3.084534|    2.399369|
|        1642|  1.9386e+00| -1.3598e+01|  4.4360e-02|  1.0000e-02|  1.3401e-02|  1.3398e-02|    6.114918|   10.262296|    9.427700|    9.765822|   14.191547|    3.088764|    2.399382|
|        1643|  1.9381e+00| -1.2441e+01|  4.6578e-02|  1.0000e-02|  1.4071e-02|  1.4068e-02|    6.209162|   10.371241|    9.537318|    9.873522|   14.325337|    3.094539|    2.399395|
|        1644|  1.9380e+00| -2.3455e+01|  4.8907e-02|  1.0000e-02|  1.0000e-02|  1.0000e-02|    6.270784|   10.452593|    9.615505|    9.953303|   14.427079|    3.101125|    2.399409|
|        1645|  1.9377e+00| -1.8873e+02|  3.4757e-02|  1.0000e-02|  1.0500e-02|  1.0500e-02|    6.317918|   10.522785|    9.705729|   10.021157|   14.515210|    3.109901|    2.399418|
|        1646|  1.9379e+00| -5.7560e+00|  3.6495e-02|  1.0000e-02|  1.1025e-02|  1.1024e-02|    6.358588|   10.575094|    9.758498|   10.072679|   14.577407|    3.119336|    2.399428|
|        1647|  1.9379e+00| -1.1090e+01|  3.8320e-02|  1.0000e-02|  1.1576e-02|  1.1575e-02|    6.349106|   10.574424|    9.744722|   10.071272|   14.580970|    3.131845|    2.399439|
|        1648|  1.9382e+00| -6.4029e+00|  4.0236e-02|  1.0000e-02|  1.2155e-02|  1.2153e-02|    6.525364|   10.725323|   10.055507|   10.234169|   14.774770|    3.141359|    2.399450|
|        1649|  1.9389e+00| -1.2140e+01|  4.2248e-02|  1.0000e-02|  1.2763e-02|  1.2761e-02|    6.580806|   10.796548|   10.117829|   10.302718|   14.855289|    3.155554|    2.399462|
|        1650|  1.9391e+00| -3.9318e+02|  4.4360e-02|  1.0000e-02|  1.0000e-02|  1.0000e-02|    6.666672|   10.879396|   10.192198|   10.377853|   14.959907|    3.167598|    2.399475|
+-----------------------------------------------------------------------+
|        File Writing Summary       |              Filename             |
+-----------------------------------------------------------------------+
|SU2 binary restart                 |restart_flow.dat                   |
|Paraview                           |flow.vtu                           |
|Paraview surface                   |surface_flow.vtu                   |
+-----------------------------------------------------------------------+
+-------------------------------------------------------------------------------------------------------------------------------------------------------------------------------------+
|  Inner_Iter|   Time(sec)|      Min DT|      Max DT|     Min CFL|     Max CFL|     Avg CFL|    rms[Rho]|   rms[RhoU]|   rms[RhoV]|   rms[RhoW]|   rms[RhoE]|     rms[nu]|          CD|
+-------------------------------------------------------------------------------------------------------------------------------------------------------------------------------------+
|        1651|  1.9450e+00| -4.1212e+01|  3.4757e-02|  1.0000e-02|  1.0500e-02|  1.0500e-02|    6.695852|   10.933596|   10.233635|   10.426470|   14.987236|    3.179469|    2.399485|
|        1652|  1.9456e+00| -5.8975e+00|  3.6495e-02|  1.0000e-02|  1.1025e-02|  1.1024e-02|    6.778464|   11.012329|   10.366840|   10.505980|   15.145024|    3.190291|    2.399495|
|        1653|  1.9455e+00| -5.1663e+00|  3.8320e-02|  1.0000e-02|  1.1576e-02|  1.1575e-02|    6.778366|   11.012090|   10.366618|   10.505807|   15.144431|    3.198967|    2.399505|
|        1654|  1.9458e+00| -1.7130e+01|  4.0236e-02|  1.0000e-02|  1.2155e-02|  1.2153e-02|    6.841033|   11.079952|   10.443062|   10.578473|   15.263113|    3.209447|    2.399517|
|        1655|  1.9463e+00| -8.4053e+00|  4.2248e-02|  1.0000e-02|  1.2763e-02|  1.2760e-02|    6.894940|   11.159060|   10.511489|   10.659094|   15.357189|    3.219760|    2.399529|
|        1656|  1.9471e+00| -2.5654e+01|  4.4360e-02|  1.0000e-02|  1.3401e-02|  1.3398e-02|    6.924991|   11.239629|   10.569584|   10.727356|   15.445367|    3.239872|    2.399541|
|        1657|  1.9473e+00| -1.2344e+02|  4.6578e-02|  1.0000e-02|  1.0000e-02|  1.0000e-02|    6.982260|   11.314386|   10.646285|   10.807356|   15.568844|    3.249461|    2.399554|
|        1658|  1.9487e+00| -3.1485e+01|  3.4757e-02|  1.0000e-02|  1.0500e-02|  1.0500e-02|    7.035989|   11.377874|   10.708760|   10.873085|   15.702961|    3.261127|    2.399564|
|        1659|  1.9499e+00| -1.5089e+02|  3.6495e-02|  1.0000e-02|  1.1025e-02|  1.1024e-02|    7.074644|   11.421031|   10.773309|   10.934676|   15.851552|    3.267445|    2.399574|
|        1660|  1.9528e+00| -1.4182e+02|  3.8320e-02|  1.0000e-02|  1.1576e-02|  1.1575e-02|    7.123699|   11.543256|   10.837673|   11.009062|   15.843658|    3.282458|    2.399585|
|        1661|  1.9546e+00| -2.4618e+01|  4.0236e-02|  1.0000e-02|  1.2155e-02|  1.2153e-02|    7.149472|   11.596540|   10.874767|   11.048204|   15.844829|    3.296448|    2.399596|
|        1662|  1.9560e+00| -2.4902e+01|  4.2248e-02|  1.0000e-02|  1.2763e-02|  1.2760e-02|    7.156544|   11.612897|   10.887876|   11.060244|   15.846286|    3.306692|    2.399608|
|        1663|  1.9568e+00| -3.3510e+01|  4.4360e-02|  1.0000e-02|  1.3401e-02|  1.3398e-02|    7.157937|   11.614157|   10.889168|   11.061568|   15.847646|    3.322297|    2.399620|
|        1664|  1.9578e+00| -2.5476e+01|  4.6578e-02|  1.0000e-02|  1.4071e-02|  1.4068e-02|    7.288743|   11.731355|   11.005975|   11.177165|   16.003854|    3.332905|    2.399633|
|        1665|  1.9587e+00| -2.5875e+01|  4.8907e-02|  1.0000e-02|  1.0000e-02|  1.0000e-02|    7.392599|   11.807764|   11.082254|   11.253824|   16.142927|    3.351010|    2.399647|
|        1666|  1.9590e+00| -2.6862e+01|  3.4757e-02|  1.0000e-02|  1.0500e-02|  1.0500e-02|    7.475844|   11.866854|   11.141797|   11.313466|   16.262309|    3.359878|    2.399657|
|        1667|  1.9609e+00| -9.5532e+00|  3.6495e-02|  1.0000e-02|  1.1025e-02|  1.1024e-02|    7.561700|   11.915419|   11.192982|   11.362976|   16.364644|    3.367322|    2.399667|
|        1668|  1.9627e+00| -6.5924e+00|  3.8320e-02|  1.0000e-02|  1.1576e-02|  1.1575e-02|    7.642282|   11.966028|   11.246733|   11.415437|   16.464612|    3.386997|    2.399678|
|        1669|  1.9642e+00| -1.1110e+02|  4.0236e-02|  1.0000e-02|  1.2155e-02|  1.2153e-02|    7.716075|   12.013345|   11.297254|   11.465469|   16.559786|    3.391822|    2.399689|
|        1670|  1.9671e+00| -6.2350e+00|  4.2248e-02|  1.0000e-02|  1.2763e-02|  1.2760e-02|    7.782688|   12.056768|   11.343867|   11.512550|   16.649659|    3.399080|    2.399701|
|        1671|  1.9692e+00| -1.7845e+01|  4.4360e-02|  1.0000e-02|  1.0000e-02|  1.0000e-02|    7.847393|   12.102388|   11.393071|   11.562094|   16.740342|    3.428379|    2.399713|
|        1672|  1.9719e+00| -4.9609e+00|  3.4757e-02|  1.0000e-02|  1.0500e-02|  1.0499e-02|    7.908021|   12.150135|   11.444629|   11.613375|   16.831886|    3.431118|    2.399723|
|        1673|  1.9743e+00| -5.1533e+02|  3.6495e-02|  1.0000e-02|  1.1025e-02|  1.1024e-02|    7.967976|   12.195324|   11.495952|   11.664175|   16.921185|    3.437043|    2.399733|
|        1674|  1.9776e+00| -1.0935e+02|  3.8320e-02|  1.0000e-02|  1.1576e-02|  1.1575e-02|    8.029861|   12.241670|   11.547566|   11.717498|   17.010142|    3.443764|    2.399744|
|        1675|  1.9787e+00| -1.7035e+02|  4.0236e-02|  1.0000e-02|  1.2155e-02|  1.2153e-02|    8.091131|   12.281781|   11.615221|   11.756706|   17.097560|    3.457214|    2.399755|
|        1676|  1.9803e+00| -7.5566e+02|  4.2248e-02|  1.0000e-02|  1.2763e-02|  1.2760e-02|    8.156253|   12.321764|   11.667730|   11.807386|   17.182065|    3.461880|    2.399767|
|        1677|  1.9814e+00| -1.2933e+01|  4.4360e-02|  1.0000e-02|  1.3401e-02|  1.3397e-02|    8.109428|   12.366186|   11.635121|   11.844398|   17.225361|    3.479478|    2.399780|
|        1678|  1.9824e+00| -1.5399e+01|  4.6578e-02|  1.0000e-02|  1.4071e-02|  1.4067e-02|    8.165989|   12.409613|   11.687050|   11.896915|   17.318106|    3.482642|    2.399793|
|        1679|  1.9841e+00| -3.1686e+01|  4.8907e-02|  1.0000e-02|  1.0000e-02|  1.0000e-02|    8.228518|   12.446774|   11.748522|   11.945437|   17.402811|    3.485036|    2.399807|
|        1680|  1.9862e+00| -1.0872e+01|  3.4757e-02|  1.0000e-02|  1.0500e-02|  1.0499e-02|    8.289102|   12.486756|   11.811361|   11.999027|   17.490636|    3.490423|    2.399816|
|        1681|  1.9874e+00| -3.0771e+01|  3.6495e-02|  1.0000e-02|  1.1025e-02|  1.1024e-02|    8.353779|   12.523258|   11.883457|   12.051257|   17.572068|    3.515020|    2.399827|
|        1682|  1.9905e+00| -4.9026e+00|  3.8320e-02|  1.0000e-02|  1.1576e-02|  1.1575e-02|    8.416016|   12.563895|   11.948103|   12.105931|   17.656689|    3.515712|    2.399837|
|        1683|  1.9923e+00| -1.4218e+01|  4.0236e-02|  1.0000e-02|  1.2155e-02|  1.2153e-02|    8.486255|   12.594012|   12.018482|   12.154253|   17.724108|    3.517176|    2.399849|
|        1684|  1.9927e+00| -3.4090e+01|  4.2248e-02|  1.0000e-02|  1.2763e-02|  1.2760e-02|    8.545459|   12.647124|   12.093303|   12.219648|   17.814925|    3.519556|    2.399860|
|        1685|  1.9934e+00| -7.3747e+00|  4.4360e-02|  1.0000e-02|  1.0000e-02|  1.0000e-02|    8.603754|   12.701177|   12.170411|   12.287155|   17.906491|    3.669386|    2.399873|
|        1686|  1.9946e+00| -4.8786e+00|  3.4757e-02|  1.0000e-02|  1.0500e-02|  1.0499e-02|    8.667414|   12.747890|   12.245922|   12.354724|   17.990576|    3.641481|    2.399883|
|        1687|  1.9949e+00| -3.3440e+01|  3.6495e-02|  1.0000e-02|  1.1025e-02|  1.1024e-02|    8.741487|   12.795750|   12.325776|   12.418821|   18.066044|    3.623774|    2.399893|
|        1688|  1.9952e+00| -4.8689e+00|  3.8320e-02|  1.0000e-02|  1.1576e-02|  1.1575e-02|    8.805591|   12.857313|   12.405881|   12.490599|   18.158315|    3.618285|    2.399904|
|        1689|  1.9981e+00| -2.1964e+01|  4.0236e-02|  1.0000e-02|  1.2155e-02|  1.2153e-02|    8.865378|   12.918519|   12.485743|   12.563227|   18.249367|    3.617757|    2.399915|
|        1690|  1.9992e+00| -7.2040e+00|  4.2248e-02|  1.0000e-02|  1.2763e-02|  1.2760e-02|    8.946532|   13.001834|   12.792984|   12.583136|   18.322724|    3.620601|    2.399927|
|        1691|  2.0016e+00| -4.8515e+00|  4.4360e-02|  1.0000e-02|  1.0000e-02|  1.0000e-02|    9.000943|   13.062727|   12.850876|   12.664481|   18.417690|    3.631748|    2.399939|
|        1692|  2.0035e+00| -1.8380e+01|  3.4757e-02|  1.0000e-02|  1.0500e-02|  1.0499e-02|    9.056370|   13.125030|   12.908713|   12.746213|   18.511479|    3.634128|    2.399949|
|        1693|  2.0051e+00| -1.3902e+01|  3.6495e-02|  1.0000e-02|  1.1025e-02|  1.1024e-02|    9.113892|   13.189731|   12.960857|   12.832989|   18.603407|    3.663632|    2.399959|
|        1694|  2.0081e+00| -4.8355e+00|  3.8320e-02|  1.0000e-02|  1.1576e-02|  1.1574e-02|    9.172705|   13.250098|   13.023613|   12.914038|   18.693446|    3.662099|    2.399970|
|        1695|  2.0119e+00| -4.8301e+00|  4.0236e-02|  1.0000e-02|  1.2155e-02|  1.2152e-02|    9.229520|   13.309380|   13.085083|   12.993707|   18.783877|    3.663819|    2.399981|
|        1696|  2.0140e+00| -6.5365e+00|  4.2248e-02|  1.0000e-02|  1.2763e-02|  1.2759e-02|    9.172412|   13.226113|   12.971098|   12.891112|   18.659849|    3.706388|    2.399993|
|        1697|  2.0153e+00| -1.2565e+01|  4.4360e-02|  1.0000e-02|  1.3401e-02|  1.3396e-02|    9.228013|   13.289723|   13.039451|   12.973474|   18.745334|    3.702987|    2.400006|
|        1698|  2.0171e+00| -6.1770e+01|  4.6578e-02|  1.0000e-02|  1.4071e-02|  1.4065e-02|    9.293716|   13.357556|   13.111066|   13.052807|   18.831101|    3.700485|    2.400019|
|        1699|  2.0184e+00| -2.0959e+01|  4.8907e-02|  1.0000e-02|  1.0000e-02|  1.0000e-02|    9.356969|   13.432480|   13.249155|   13.145315|   18.931850|    3.732499|    2.400033|
|        1700|  2.0193e+00| -6.7113e+01|  3.4757e-02|  1.0000e-02|  1.0500e-02|  1.0499e-02|    9.290214|   13.349542|   13.177433|   13.043603|   18.823251|    3.725907|    2.400042|
|        1701|  2.0200e+00| -8.8039e+00|  3.6495e-02|  1.0000e-02|  1.1025e-02|  1.1024e-02|    9.225311|   13.271869|   13.107267|   12.939679|   18.711164|    3.725455|    2.400053|
|        1702|  2.0209e+00| -2.7940e+01|  3.8320e-02|  1.0000e-02|  1.1576e-02|  1.1574e-02|    9.278254|   13.336023|   13.164404|   13.022919|   18.801121|    3.725918|    2.400063|
|        1703|  2.0236e+00| -2.0455e+01|  4.0236e-02|  1.0000e-02|  1.2155e-02|  1.2152e-02|    9.337701|   13.403227|   13.224046|   13.104096|   18.890363|    3.727807|    2.400075|
|        1704|  2.0259e+00| -4.7820e+00|  4.2248e-02|  1.0000e-02|  1.2763e-02|  1.2759e-02|    9.400007|   13.472078|   13.286058|   13.185801|   18.978295|    3.735765|    2.400086|
|        1705|  2.0293e+00| -2.4172e+01|  4.4360e-02|  1.0000e-02|  1.3401e-02|  1.3396e-02|    9.327482|   13.389873|   13.211252|   13.083925|   18.872614|    3.740529|    2.400099|
|        1706|  2.0323e+00| -2.0354e+01|  4.6578e-02|  1.0000e-02|  1.4071e-02|  1.4065e-02|    9.259066|   13.311182|   13.139657|   12.980909|   18.762595|    3.741688|    2.400112|
|        1707|  2.0333e+00| -2.4938e+01|  4.8907e-02|  1.0000e-02|  1.4775e-02|  1.4767e-02|    9.314909|   13.376815|   13.198340|   13.063553|   18.851392|    3.744071|    2.400126|
|        1708|  2.0338e+00| -4.4551e+01|  5.1353e-02|  1.0000e-02|  1.5513e-02|  1.5505e-02|    9.373701|   13.445547|   13.258743|   13.144149|   18.937419|    3.754696|    2.400140|
|        1709|  2.0340e+00| -1.4295e+02|  5.3920e-02|  1.0000e-02|  1.6289e-02|  1.6279e-02|    9.437349|   13.515250|   13.321308|   13.223585|   19.024321|    3.756469|    2.400155|
|        1710|  2.0347e+00| -1.9566e+01|  5.6616e-02|  1.0000e-02|  1.7103e-02|  1.7093e-02|    9.502822|   13.586770|   13.386142|   13.303334|   19.110141|    3.757576|    2.400171|
|        1711|  2.0360e+00| -5.2524e+01|  5.9447e-02|  1.0000e-02|  1.7959e-02|  1.7946e-02|    9.569921|   13.659794|   13.453243|   13.383486|   19.195053|    3.759957|    2.400188|
|        1712|  2.0371e+00| -1.4783e+01|  6.2419e-02|  1.0000e-02|  1.8856e-02|  1.8843e-02|    9.638515|   13.734121|   13.522555|   13.464053|   19.279213|    3.774277|    2.400206|
|        1713|  2.0376e+00| -4.7149e+00|  6.5540e-02|  1.0000e-02|  1.9799e-02|  1.9784e-02|    9.557693|   13.643894|   13.438356|   13.364587|   19.178628|    3.774830|    2.400224|
|        1714|  2.0393e+00| -4.7089e+00|  6.8817e-02|  1.0000e-02|  2.0789e-02|  2.0773e-02|    9.481358|   13.556482|   13.355896|   13.261938|   19.073416|    3.775855|    2.400243|
|        1715|  2.0412e+00| -1.9952e+01|  7.2258e-02|  1.0000e-02|  2.1829e-02|  2.1810e-02|    9.542259|   13.627899|   13.422643|   13.345403|   19.159066|    3.777251|    2.400264|
|        1716|  2.0420e+00| -1.0101e+02|  7.5871e-02|  1.0000e-02|  2.2920e-02|  2.2899e-02|    9.604970|   13.701142|   13.489620|   13.426786|   19.240794|    3.837740|    2.400285|
|        1717|  2.0419e+00| -6.2608e+00|  7.9665e-02|  1.0000e-02|  2.4066e-02|  2.4044e-02|    9.676435|   13.776471|   13.559088|   13.504190|   19.322570|    3.828546|    2.400307|
|        1718|  2.0420e+00| -4.6797e+00|  8.3648e-02|  1.0000e-02|  1.0000e-02|  1.0000e-02|    9.749139|   13.852691|   13.630152|   13.581837|   19.403740|    3.823247|    2.400331|
|        1719|  2.0421e+00| -3.9841e+02|  3.4757e-02|  1.0000e-02|  1.0500e-02|  1.0499e-02|    9.822937|   13.929620|   13.702598|   13.659671|   19.484416|    3.821988|    2.400341|
|        1720|  2.0424e+00| -4.4047e+01|  3.6495e-02|  1.0000e-02|  1.1025e-02|  1.1024e-02|    9.897757|   14.007104|   13.776224|   13.737658|   19.564749|    3.821049|    2.400351|
|        1721|  2.0424e+00| -1.4520e+02|  3.8320e-02|  1.0000e-02|  1.1576e-02|  1.1574e-02|    9.973508|   14.085008|   13.850782|   13.815699|   19.644598|    3.827674|    2.400362|
|        1722|  2.0423e+00| -2.4018e+01|  4.0236e-02|  1.0000e-02|  1.2155e-02|  1.2153e-02|   10.050016|   14.163235|   13.926115|   13.893766|   19.724080|    3.828118|    2.400373|
|        1723|  2.0421e+00| -1.6397e+01|  4.2248e-02|  1.0000e-02|  1.2763e-02|  1.2760e-02|   10.127650|   14.241701|   14.001980|   13.971783|   19.802794|    3.829396|    2.400385|
|        1724|  2.0418e+00| -1.2581e+01|  4.4360e-02|  1.0000e-02|  1.0000e-02|  1.0000e-02|   10.205168|   14.320359|   14.078445|   14.049825|   19.881877|    3.825733|    2.400397|
|        1725|  2.0415e+00| -9.4325e+00|  3.4757e-02|  1.0000e-02|  1.0500e-02|  1.0500e-02|   10.283052|   14.399153|   14.155399|   14.127866|   19.960845|    3.842578|    2.400407|


Error in "void CSolver::SetResidual_RMS(const CGeometry*, const CConfig*)": 
-------------------------------------------------------------------------
SU2 has diverged (Residual > 10^20 detected).
------------------------------ Error Exit -------------------------------



scontrol show job 1009199
JobId=1009199 JobName=m9_course
   UserId=anthonyy(3152141) GroupId=anthonyy(3152141) MCS_label=N/A
   Priority=633336 Nice=0 Account=rrg-jphickey QOS=normal
   JobState=COMPLETING Reason=NonZeroExitCode Dependency=(null)
   Requeue=0 Restarts=0 BatchFlag=1 Reboot=0 ExitCode=1:0
   RunTime=01:00:06 TimeLimit=18:00:00 TimeMin=N/A
   SubmitTime=2026-02-14T13:33:25 EligibleTime=2026-02-14T13:33:25
   AccrueTime=2026-02-14T13:33:25
   StartTime=2026-02-14T22:43:02 EndTime=2026-02-14T23:43:08 Deadline=N/A
   SuspendTime=None SecsPreSuspend=0 LastSchedEval=2026-02-14T22:43:02 Scheduler=Main
   Partition=compute AllocNode:Sid=tri-login06:1521867
   ReqNodeList=(null) ExcNodeList=(null)
   NodeList=tri[0678,0680]
   BatchHost=tri0678
   NumNodes=2 NumCPUs=384 NumTasks=128 CPUs/Task=1 ReqB:S:C:T=0:0:*:*
   ReqTRES=cpu=128,mem=1534000M,node=2,billing=128
   AllocTRES=cpu=384,mem=1534000M,node=2,billing=384
   Socks/Node=* NtasksPerN:B:S:C=64:0:*:* CoreSpec=*
   MinCPUsNode=64 MinMemoryNode=767000M MinTmpDiskNode=0
   Features=(null) DelayBoot=00:00:00
   OverSubscribe=NO Contiguous=0 Licenses=(null) Network=(null)
   Command=/scratch/anthonyy/reentry/orion/cases/m9_course/run.sh
   WorkDir=/scratch/anthonyy/reentry/orion/cases/m9_course
   Comment=/opt/slurm/bin/sbatch --export=NONE --get-user-env=L run.sh 
   StdErr=/scratch/anthonyy/reentry/orion/cases/m9_course/orion_1009199.err
   StdIn=/dev/null
   StdOut=/scratch/anthonyy/reentry/orion/cases/m9_course/orion_1009199.out
   TresPerTask=cpu=1
   

sacct -j 1009199
JobID           JobName    Account    Elapsed  MaxVMSize     MaxRSS  SystemCPU    UserCPU ExitCode 
------------ ---------- ---------- ---------- ---------- ---------- ---------- ---------- -------- 
1009199       m9_course rrg-jphic+   01:00:06                         00:00:00   00:00:00      0:0 
1009199.bat+      batch rrg-jphic+   01:00:06                         00:00:00   00:00:00      0:0 
1009199.ext+     extern rrg-jphic+   01:00:06                         00:00:00   00:00:00      0:0 
1009199.0       SU2_CFD rrg-jphic+   01:00:00                         00:00:00   00:00:00      0:0 

