Nodes: tri[0269-0270]
Tasks: 128
NPN:   64

-------------------------------------------------------------------------
|    ___ _   _ ___                                                      |
|   / __| | | |_  )   Release 7.5.1 "Blackbird"                         |
|   \__ \ |_| |/ /                                                      |
|   |___/\___//___|   Suite (Computational Fluid Dynamics Code)         |
|                                                                       |
-------------------------------------------------------------------------
| SU2 Project Website: https://su2code.github.io                        |
|                                                                       |
| The SU2 Project is maintained by the SU2 Foundation                   |
| (http://su2foundation.org)                                            |
-------------------------------------------------------------------------
| Copyright 2012-2023, SU2 Contributors                                 |
|                                                                       |
| SU2 is free software; you can redistribute it and/or                  |
| modify it under the terms of the GNU Lesser General Public            |
| License as published by the Free Software Foundation; either          |
| version 2.1 of the License, or (at your option) any later version.    |
|                                                                       |
| SU2 is distributed in the hope that it will be useful,                |
| but WITHOUT ANY WARRANTY; without even the implied warranty of        |
| MERCHANTABILITY or FITNESS FOR A PARTICULAR PURPOSE. See the GNU      |
| Lesser General Public License for more details.                       |
|                                                                       |
| You should have received a copy of the GNU Lesser General Public      |
| License along with SU2. If not, see <http://www.gnu.org/licenses/>.   |
-------------------------------------------------------------------------

Parsing config file for zone 0

----------------- Physical Case Definition ( Zone 0 ) -------------------
Compressible RANS equations.
Turbulence model: Spalart-Allmaras-noft2
Hybrid RANS/LES: No Hybrid RANS/LES
Mach number: 9.
Angle of attack (AoA): 0 deg, and angle of sideslip (AoS): 0 deg.
Reynolds number: 1.02934e+09. Reference length 5.
No restart solution, use the values at infinity (freestream).
Non-Dimensional simulation (V=1.0, Rho=1.0, T=1.0 at the farfield).
The reference area will be computed using y(2D) or z(3D) projection.
The semi-span will be computed using the max y(3D) value.
The reference length is 0.64607 m.
Reference origin for moment evaluation is (0.25, 0, 0).
Surface(s) where the force coefficients are evaluated: ORION_SURFACE.

Input mesh file name: course.su2

--------------- Space Numerical Integration ( Zone 0 ) ------------------
Jameson-Schmidt-Turkel scheme (2nd order in space) for the flow inviscid terms.
JST viscous coefficients (2nd & 4th): 0.5, 0.02.
The method includes a grid stretching correction (p = 0.3).
Scalar upwind solver for the turbulence model.
First order integration in space.
Average of gradients with correction (viscous flow terms).
Average of gradients with correction (viscous turbulence terms).
Gradient for upwind reconstruction: Green-Gauss.
Gradient for viscous and source terms: Green-Gauss.

--------------- Time Numerical Integration  ( Zone 0 ) ------------------
Local time stepping (steady state simulation).
Euler implicit method for the flow equations.
FGMRES is used for solving the linear system.
Using a ILU(0) preconditioning.
Convergence criteria of the linear solver: 0.0001.
Max number of linear iterations: 100.
CFL adaptation. Factor down: 0.2, factor up: 1.05,
                lower limit: 0.001, upper limit: 0.01,
                acceptable linear residual: 0.001.
Courant-Friedrichs-Lewy number:    0.005
Euler implicit time integration for the turbulence model.

------------------ Convergence Criteria  ( Zone 0 ) ---------------------
Maximum number of solver subiterations: 999999.
Begin convergence monitoring at iteration 5.
Residual minimum value: 1e-8.
Cauchy series min. value: 1e-10.
Number of Cauchy elements: 100.
Begin windowed time average at iteration 0.

-------------------- Output Information ( Zone 0 ) ----------------------
File writing frequency: 
+------------------------------------+
|                     File| Frequency|
+------------------------------------+
|                  RESTART|       150|
|                 PARAVIEW|       150|
|         SURFACE_PARAVIEW|       150|
+------------------------------------+
Writing the convergence history file every 1 inner iterations.
Writing the screen convergence history every 1 inner iterations.
The tabular file format is CSV (.csv).
Convergence history file name: history.
Forces breakdown file name: forces_breakdown.dat.
Surface file name: surface_flow.
Volume file name: flow.
Restart file name: restart_flow.

------------- Config File Boundary Information ( Zone 0 ) ---------------
+-----------------------------------------------------------------------+
|                        Marker Type|                        Marker Name|
+-----------------------------------------------------------------------+
|                          Far-field|                           FARFIELD|
+-----------------------------------------------------------------------+
|                     Heat flux wall|                      ORION_SURFACE|
+-----------------------------------------------------------------------+

-------------------- Output Preprocessing ( Zone 0 ) --------------------

WARNING: SURFACE_PRESSURE_DROP can only be computed for at least 2 surfaces (outlet, inlet, ...)

Screen output fields: INNER_ITER, WALL_TIME, MIN_DELTA_TIME, MAX_DELTA_TIME, MIN_CFL, MAX_CFL, AVG_CFL, RMS_DENSITY, RMS_MOMENTUM-X, RMS_MOMENTUM-Y, RMS_MOMENTUM-Z, RMS_ENERGY, RMS_NU_TILDE, DRAG
History output group(s): ITER, RMS_RES
Convergence field(s): RMS_DENSITY
Warning: No (valid) fields chosen for time convergence monitoring. Time convergence monitoring inactive.
Volume output fields: COORDINATES, SOLUTION, PRIMITIVE

------------------- Geometry Preprocessing ( Zone 0 ) -------------------
Three dimensional problem.
11720736 grid points before partitioning.
30680382 volume elements before partitioning.
2 surface markers.
790 boundary elements in index 0 (Marker = FARFIELD).
360672 boundary elements in index 1 (Marker = ORION_SURFACE).
Executing the partitioning functions.
Building the graph adjacency structure.
Calling ParMETIS... graph partitioning complete (1579501 edge cuts).
Distributing ParMETIS coloring.
Rebalancing vertices.
Rebalancing volume element connectivity.
Rebalancing markers and surface elements.
13574281 vertices including ghost points. 
32958004 interior elements including halo cells. 
11628872 tetrahedra.
21220846 prisms.
108286 pyramids.
Establishing MPI communication patterns.
Setting point connectivity.
Renumbering points (Reverse Cuthill McKee Ordering).
Recomputing point connectivity.
Setting element connectivity.
Checking the numerical grid orientation.
All volume elements are correctly orientend.
All surface elements are correctly orientend.
Identifying edges and vertices.
Setting the control volume structure.
Volume of the computational grid: 591575.
Searching for the closest normal neighbors to the surfaces.
Storing a mapping from global to local point index.
Compute the surface curvature.
Max K: 109.201. Mean K: 3.88946. Standard deviation K: 7.33798.
Checking for periodicity.
Computing mesh quality statistics for the dual control volumes.
+--------------------------------------------------------------+
|           Mesh Quality Metric|        Minimum|        Maximum|
+--------------------------------------------------------------+
|    Orthogonality Angle (deg.)|        52.6472|             90|
|     CV Face Area Aspect Ratio|        1.03802|         193380|
|           CV Sub-Volume Ratio|        1.00749|         34.476|
+--------------------------------------------------------------+
Finding max control volume width.
Communicating number of neighbors.
Reference area = 11.5305 m^2.
Semi-span length = 2.49994 m.
Wetted area = 57.8992 m^2.
Area projection in the x-plane = 19.6317 m^2, y-plane = 11.5307 m^2, z-plane = 11.5305 m^2.
Max. coordinate in the x-direction = 2.575 m, y-direction = 2.49994 m, z-direction = 2.49989 m.
Min. coordinate in the x-direction = -0.71 m, y-direction = -2.49995 m, z-direction = -2.49995 m.
Computing wall distances.

-------------------- Solver Preprocessing ( Zone 0 ) --------------------
Viscous flow: Computing pressure using the ideal gas law
based on the free-stream temperature and a density computed
from the Reynolds number.
Force coefficients computed using free-stream values.

-- Models:
+------------------------------------------------------------------------------+
|          Viscosity Model|        Conductivity Model|              Fluid Model|
+------------------------------------------------------------------------------+
|               SUTHERLAND|          CONSTANT_PRANDTL|             STANDARD_AIR|
+------------------------------------------------------------------------------+
-- Fluid properties:
+------------------------------------------------------------------------------+
|                  Name|    Dim. value|    Ref. value|      Unit|Non-dim. value|
+------------------------------------------------------------------------------+
|        Ref. Viscosity|     1.716e-05|        3683.6|   N.s/m^2|   4.65848e-09|
|      Sutherland Temp.|        273.15|        288.15|         K|      0.947944|
|     Sutherland Const.|         110.4|        288.15|         K|      0.383134|
+------------------------------------------------------------------------------+
|        Prandtl (Lam.)|             -|             -|         -|          0.72|
|       Prandtl (Turb.)|             -|             -|         -|           0.9|
+------------------------------------------------------------------------------+
|          Gas Constant|       287.058|       32552.4|  N.m/kg.K|    0.00881834|
|      Spec. Heat Ratio|             -|             -|         -|           1.4|
+------------------------------------------------------------------------------+
-- Initial and free-stream conditions:
+------------------------------------------------------------------------------+
|                  Name|    Dim. value|    Ref. value|      Unit|Non-dim. value|
+------------------------------------------------------------------------------+
|       Static Pressure|       99485.6|   1.12817e+07|        Pa|    0.00881834|
|               Density|       1.20274|       1.20274|    kg/m^3|             1|
|           Temperature|        288.15|        288.15|         K|             1|
|          Total Energy|   4.89677e+06|   9.37997e+06|   m^2/s^2|      0.522046|
|            Velocity-X|       3062.67|       3062.67|       m/s|             1|
|            Velocity-Y|             0|       3062.67|       m/s|             0|
|            Velocity-Z|             0|       3062.67|       m/s|             0|
|    Velocity Magnitude|       3062.67|       3062.67|       m/s|             1|
+------------------------------------------------------------------------------+
|             Viscosity|    1.7893e-05|        3683.6|   N.s/m^2|   4.85747e-09|
|          Conductivity|             -|    1.1991e+08|   W/m^2.K|             -|
|     Turb. Kin. Energy|       35174.9|   9.37997e+06|   m^2/s^2|       0.00375|
|     Spec. Dissipation|   2.36441e+08|       3062.67|       1/s|       77200.7|
+------------------------------------------------------------------------------+
|           Mach Number|             -|             -|         -|             9|
|       Reynolds Number|             -|             -|         -|   1.02934e+09|
+------------------------------------------------------------------------------+
Initialize Jacobian structure (Navier-Stokes). MG level: 0.
Initialize Jacobian structure (SA model).

------------------- Numerics Preprocessing ( Zone 0 ) -------------------

----------------- Integration Preprocessing ( Zone 0 ) ------------------

------------------- Iteration Preprocessing ( Zone 0 ) ------------------
Euler/Navier-Stokes/RANS fluid iteration.

------------------------------ Begin Solver -----------------------------

Simulation Run using the Single-zone Driver
WARNING: SU2 was not compiled for an AVX-capable architecture. Performance could be better,
         see https://su2code.github.io/docs_v7/Build-SU2-Linux-MacOS/#compiler-optimizations
+-------------------------------------------------------------------------------------------------------------------------------------------------------------------------------------+
|  Inner_Iter|   Time(sec)|      Min DT|      Max DT|     Min CFL|     Max CFL|     Avg CFL|    rms[Rho]|   rms[RhoU]|   rms[RhoV]|   rms[RhoW]|   rms[RhoE]|     rms[nu]|          CD|
+-------------------------------------------------------------------------------------------------------------------------------------------------------------------------------------+
|           0|  7.9882e-01|  1.1242e-09|  1.7374e-02|  5.2500e-03|  5.2500e-03|  5.2500e-03|   -4.535266|  -15.622376|  -17.216817|  -17.209246|   -4.810283|  -12.727377|    0.381656|
|           1|  7.6609e-01|  1.9194e-09|  1.8243e-02|  5.5125e-03|  5.5125e-03|  5.5125e-03|   -4.685781|   -4.715982|   -5.707242|   -5.706935|   -4.948394|  -12.519787|    0.383914|
|           2|  7.5204e-01|  2.0143e-09|  1.9155e-02|  5.7881e-03|  5.7881e-03|  5.7881e-03|   -4.685867|   -4.717881|   -5.708320|   -5.708013|   -4.948654|  -12.521300|    0.386283|
|           3|  7.4493e-01|  2.1139e-09|  2.0112e-02|  6.0775e-03|  6.0775e-03|  6.0775e-03|   -4.685953|   -4.719792|   -5.709435|   -5.709128|   -4.948908|  -12.522896|    0.388770|
|           4|  7.4539e-01|  2.2185e-09|  2.1118e-02|  6.3814e-03|  6.3814e-03|  6.3814e-03|   -4.686040|   -4.721714|   -5.710589|   -5.710281|   -4.949157|  -12.524568|    0.391380|
|           5|  7.4879e-01|  2.3282e-09|  2.2174e-02|  6.7005e-03|  6.7005e-03|  6.7005e-03|   -4.686128|   -4.723648|   -5.711781|   -5.711473|   -4.949401|  -12.526309|    0.394119|
|           6|  7.5044e-01|  2.4435e-09|  2.3283e-02|  7.0355e-03|  7.0355e-03|  7.0355e-03|   -4.686217|   -4.725594|   -5.713012|   -5.712704|   -4.949638|  -12.528115|    0.396993|
|           7|  7.5279e-01|  2.5620e-09|  2.4447e-02|  7.3873e-03|  7.3873e-03|  7.3873e-03|   -4.686306|   -4.727551|   -5.714283|   -5.713975|   -4.949870|  -12.529982|    0.400009|
|           8|  7.5273e-01|  2.6805e-09|  2.5669e-02|  7.7566e-03|  7.7566e-03|  7.7566e-03|   -4.686395|   -4.729519|   -5.715595|   -5.715287|   -4.950095|  -12.531909|    0.403173|
|           9|  7.5180e-01|  2.8040e-09|  2.6953e-02|  8.1445e-03|  8.1445e-03|  8.1445e-03|   -4.686485|   -4.731499|   -5.716948|   -5.716640|   -4.950313|  -12.533896|    0.406492|
|          10|  7.4953e-01|  2.9328e-09|  2.8300e-02|  8.5517e-03|  8.5517e-03|  8.5517e-03|   -4.686574|   -4.733490|   -5.718344|   -5.718036|   -4.950523|  -12.535942|    0.409972|
|          11|  7.4751e-01|  3.0670e-09|  2.9715e-02|  8.9793e-03|  8.9793e-03|  8.9793e-03|   -4.686664|   -4.735492|   -5.719784|   -5.719476|   -4.950725|  -12.538048|    0.413623|
|          12|  7.4639e-01|  3.2068e-09|  3.1201e-02|  9.4282e-03|  9.4282e-03|  9.4282e-03|   -4.686753|   -4.737506|   -5.721268|   -5.720960|   -4.950920|  -12.540210|    0.417452|
|          13|  7.4463e-01|  3.3525e-09|  3.2761e-02|  9.8997e-03|  9.8997e-03|  9.8997e-03|   -4.686842|   -4.739531|   -5.722798|   -5.722489|   -4.951105|  -12.542429|    0.421467|
|          14|  7.4442e-01|  3.5042e-09|  3.4399e-02|  1.0000e-02|  1.0000e-02|  1.0000e-02|   -4.686930|   -4.741568|   -5.724374|   -5.724066|   -4.951281|  -12.544708|    0.425678|
|          15|  7.4277e-01|  3.5233e-09|  3.4748e-02|  1.0000e-02|  1.0000e-02|  1.0000e-02|   -4.687016|   -4.743617|   -5.725999|   -5.725690|   -4.951448|  -12.547037|    0.429927|
|          16|  7.4133e-01|  3.5069e-09|  3.4748e-02|  1.0000e-02|  1.0000e-02|  1.0000e-02|   -4.687099|   -4.745601|   -5.727609|   -5.727301|   -4.951599|  -12.549341|    0.434172|
|          17|  7.4045e-01|  3.4909e-09|  3.4748e-02|  1.0000e-02|  1.0000e-02|  1.0000e-02|   -4.687176|   -4.747509|   -5.729191|   -5.728882|   -4.951733|  -12.551603|    0.438412|
|          18|  7.3951e-01|  3.4752e-09|  3.4748e-02|  1.0000e-02|  1.0000e-02|  1.0000e-02|   -4.687249|   -4.749345|   -5.730744|   -5.730436|   -4.951854|  -12.553826|    0.442648|
|          19|  7.3854e-01|  3.4597e-09|  3.4748e-02|  1.0000e-02|  1.0000e-02|  1.0000e-02|   -4.687317|   -4.751117|   -5.732272|   -5.731963|   -4.951961|  -12.556011|    0.446880|
|          20|  7.3776e-01|  3.4446e-09|  3.4748e-02|  1.0000e-02|  1.0000e-02|  1.0000e-02|   -4.687380|   -4.752829|   -5.733774|   -5.733466|   -4.952055|  -12.558160|    0.451108|
|          21|  7.3656e-01|  3.4297e-09|  3.4748e-02|  1.0000e-02|  1.0000e-02|  1.0000e-02|   -4.687439|   -4.754485|   -5.735253|   -5.734944|   -4.952139|  -12.560277|    0.455332|
|          22|  7.3647e-01|  3.4150e-09|  3.4748e-02|  1.0000e-02|  1.0000e-02|  1.0000e-02|   -4.687495|   -4.756091|   -5.736708|   -5.736399|   -4.952211|  -12.562363|    0.459552|
|          23|  7.3547e-01|  3.4007e-09|  3.4748e-02|  1.0000e-02|  1.0000e-02|  1.0000e-02|   -4.687546|   -4.757649|   -5.738142|   -5.737833|   -4.952274|  -12.564420|    0.463770|
|          24|  7.3432e-01|  3.3865e-09|  3.4748e-02|  1.0000e-02|  1.0000e-02|  1.0000e-02|   -4.687594|   -4.759163|   -5.739554|   -5.739245|   -4.952328|  -12.566449|    0.467984|
|          25|  7.3350e-01|  3.3726e-09|  3.4748e-02|  1.0000e-02|  1.0000e-02|  1.0000e-02|   -4.687638|   -4.760636|   -5.740945|   -5.740636|   -4.952374|  -12.568453|    0.472194|
|          26|  7.3260e-01|  3.3588e-09|  3.4748e-02|  1.0000e-02|  1.0000e-02|  1.0000e-02|   -4.687678|   -4.762071|   -5.742317|   -5.742008|   -4.952411|  -12.570431|    0.476402|
|          27|  7.3210e-01|  3.3453e-09|  3.4748e-02|  1.0000e-02|  1.0000e-02|  1.0000e-02|   -4.687715|   -4.763470|   -5.743669|   -5.743360|   -4.952442|  -12.572386|    0.480607|
|          28|  7.3179e-01|  3.3320e-09|  3.4748e-02|  1.0000e-02|  1.0000e-02|  1.0000e-02|   -4.687749|   -4.764836|   -5.745003|   -5.744694|   -4.952465|  -12.574318|    0.484809|
|          29|  7.3105e-01|  3.3189e-09|  3.4748e-02|  1.0000e-02|  1.0000e-02|  1.0000e-02|   -4.687780|   -4.766170|   -5.746318|   -5.746009|   -4.952481|  -12.576229|    0.489009|
|          30|  7.3050e-01|  3.3059e-09|  3.4748e-02|  1.0000e-02|  1.0000e-02|  1.0000e-02|   -4.687807|   -4.767475|   -5.747616|   -5.747307|   -4.952492|  -12.578118|    0.493206|
|          31|  7.2995e-01|  3.2932e-09|  3.4748e-02|  1.0000e-02|  1.0000e-02|  1.0000e-02|   -4.687832|   -4.768752|   -5.748897|   -5.748588|   -4.952496|  -12.579988|    0.497400|
|          32|  7.2942e-01|  3.2805e-09|  3.4748e-02|  1.0000e-02|  1.0000e-02|  1.0000e-02|   -4.687853|   -4.770003|   -5.750161|   -5.749852|   -4.952495|  -12.581838|    0.501592|
|          33|  7.2897e-01|  3.2681e-09|  3.4748e-02|  1.0000e-02|  1.0000e-02|  1.0000e-02|   -4.687872|   -4.771229|   -5.751408|   -5.751099|   -4.952489|  -12.583670|    0.505782|
|          34|  7.2840e-01|  3.2558e-09|  3.4748e-02|  1.0000e-02|  1.0000e-02|  1.0000e-02|   -4.687888|   -4.772432|   -5.752639|   -5.752330|   -4.952477|  -12.585483|    0.509970|
|          35|  7.2787e-01|  3.2437e-09|  3.4748e-02|  1.0000e-02|  1.0000e-02|  1.0000e-02|   -4.687901|   -4.773613|   -5.753855|   -5.753546|   -4.952461|  -12.587280|    0.514156|
|          36|  7.2748e-01|  3.2317e-09|  3.4748e-02|  1.0000e-02|  1.0000e-02|  1.0000e-02|   -4.687912|   -4.774773|   -5.755055|   -5.754746|   -4.952441|  -12.589061|    0.518340|
|          37|  7.2764e-01|  3.2199e-09|  3.4748e-02|  1.0000e-02|  1.0000e-02|  1.0000e-02|   -4.687920|   -4.775913|   -5.756240|   -5.755931|   -4.952416|  -12.590832|    0.522521|
|          38|  7.2723e-01|  3.2082e-09|  3.4748e-02|  1.0000e-02|  1.0000e-02|  1.0000e-02|   -4.687926|   -4.777034|   -5.757410|   -5.757101|   -4.952387|  -12.592591|    0.526701|
|          39|  7.2683e-01|  3.1966e-09|  3.4748e-02|  1.0000e-02|  1.0000e-02|  1.0000e-02|   -4.687928|   -4.778137|   -5.758566|   -5.758257|   -4.952354|  -12.594335|    0.530880|
|          40|  7.2650e-01|  3.1852e-09|  3.4748e-02|  1.0000e-02|  1.0000e-02|  1.0000e-02|   -4.687929|   -4.779223|   -5.759707|   -5.759398|   -4.952317|  -12.596062|    0.535056|
|          41|  7.2618e-01|  3.1738e-09|  3.4748e-02|  1.0000e-02|  1.0000e-02|  1.0000e-02|   -4.687927|   -4.780293|   -5.760834|   -5.760525|   -4.952276|  -12.597773|    0.539231|
|          42|  7.2583e-01|  3.1626e-09|  3.4748e-02|  1.0000e-02|  1.0000e-02|  1.0000e-02|   -4.687923|   -4.781348|   -5.761947|   -5.761638|   -4.952232|  -12.599470|    0.543405|
|          43|  7.2546e-01|  3.1516e-09|  3.4748e-02|  1.0000e-02|  1.0000e-02|  1.0000e-02|   -4.687916|   -4.782388|   -5.763046|   -5.762737|   -4.952185|  -12.601152|    0.547577|
|          44|  7.2519e-01|  3.1406e-09|  3.4748e-02|  1.0000e-02|  1.0000e-02|  1.0000e-02|   -4.687908|   -4.783414|   -5.764132|   -5.763823|   -4.952134|  -12.602821|    0.551747|
|          45|  7.2481e-01|  3.1298e-09|  3.4748e-02|  1.0000e-02|  1.0000e-02|  1.0000e-02|   -4.687897|   -4.784426|   -5.765204|   -5.764896|   -4.952081|  -12.604476|    0.555917|
|          46|  7.2445e-01|  3.1190e-09|  3.4748e-02|  1.0000e-02|  1.0000e-02|  1.0000e-02|   -4.687884|   -4.785426|   -5.766264|   -5.765956|   -4.952024|  -12.606122|    0.560085|
|          47|  7.2418e-01|  3.1084e-09|  3.4748e-02|  1.0000e-02|  1.0000e-02|  1.0000e-02|   -4.687868|   -4.786413|   -5.767311|   -5.767002|   -4.951964|  -12.607759|    0.564251|
|          48|  7.2390e-01|  3.0979e-09|  3.4748e-02|  1.0000e-02|  1.0000e-02|  1.0000e-02|   -4.687851|   -4.787388|   -5.768344|   -5.768036|   -4.951902|  -12.609387|    0.568417|
|          49|  7.2381e-01|  3.0875e-09|  3.4748e-02|  1.0000e-02|  1.0000e-02|  1.0000e-02|   -4.687832|   -4.788353|   -5.769366|   -5.769058|   -4.951837|  -12.611003|    0.572582|
|          50|  7.2349e-01|  3.0772e-09|  3.4748e-02|  1.0000e-02|  1.0000e-02|  1.0000e-02|   -4.687810|   -4.789306|   -5.770374|   -5.770067|   -4.951769|  -12.612607|    0.576745|
|          51|  7.2323e-01|  3.0669e-09|  3.4748e-02|  1.0000e-02|  1.0000e-02|  1.0000e-02|   -4.687787|   -4.790250|   -5.771371|   -5.771063|   -4.951699|  -12.614200|    0.580908|
|          52|  7.2302e-01|  3.0568e-09|  3.4748e-02|  1.0000e-02|  1.0000e-02|  1.0000e-02|   -4.687761|   -4.791183|   -5.772355|   -5.772048|   -4.951626|  -12.615781|    0.585069|
|          53|  7.2287e-01|  3.0468e-09|  3.4748e-02|  1.0000e-02|  1.0000e-02|  1.0000e-02|   -4.687734|   -4.792107|   -5.773328|   -5.773020|   -4.951551|  -12.617350|    0.589230|
|          54|  7.2269e-01|  3.0368e-09|  3.4748e-02|  1.0000e-02|  1.0000e-02|  1.0000e-02|   -4.687705|   -4.793022|   -5.774288|   -5.773981|   -4.951473|  -12.618908|    0.593390|
|          55|  7.2262e-01|  3.0270e-09|  3.4748e-02|  1.0000e-02|  1.0000e-02|  1.0000e-02|   -4.687674|   -4.793928|   -5.775237|   -5.774930|   -4.951394|  -12.620454|    0.597549|
|          56|  7.2243e-01|  3.0172e-09|  3.4748e-02|  1.0000e-02|  1.0000e-02|  1.0000e-02|   -4.687641|   -4.794825|   -5.776174|   -5.775867|   -4.951312|  -12.621989|    0.601708|
|          57|  7.2242e-01|  3.0075e-09|  3.4748e-02|  1.0000e-02|  1.0000e-02|  1.0000e-02|   -4.687606|   -4.795715|   -5.777100|   -5.776793|   -4.951228|  -12.623514|    0.605866|
|          58|  7.2234e-01|  2.9980e-09|  3.4748e-02|  1.0000e-02|  1.0000e-02|  1.0000e-02|   -4.687570|   -4.796596|   -5.778014|   -5.777707|   -4.951142|  -12.625027|    0.610023|
|          59|  7.2216e-01|  2.9884e-09|  3.4748e-02|  1.0000e-02|  1.0000e-02|  1.0000e-02|   -4.687532|   -4.797471|   -5.778916|   -5.778610|   -4.951053|  -12.626530|    0.614179|
|          60|  7.2203e-01|  2.9790e-09|  3.4748e-02|  1.0000e-02|  1.0000e-02|  1.0000e-02|   -4.687492|   -4.798337|   -5.779808|   -5.779502|   -4.950963|  -12.628022|    0.618335|
|          61|  7.2188e-01|  2.9697e-09|  3.4748e-02|  1.0000e-02|  1.0000e-02|  1.0000e-02|   -4.687450|   -4.799197|   -5.780689|   -5.780382|   -4.950871|  -12.629506|    0.622491|
|          62|  7.2174e-01|  2.9604e-09|  3.4748e-02|  1.0000e-02|  1.0000e-02|  1.0000e-02|   -4.687407|   -4.800051|   -5.781558|   -5.781252|   -4.950777|  -12.630981|    0.626646|
|          63|  7.2157e-01|  2.9512e-09|  3.4748e-02|  1.0000e-02|  1.0000e-02|  1.0000e-02|   -4.687362|   -4.800897|   -5.782417|   -5.782111|   -4.950681|  -12.632456|    0.630800|
|          64|  7.2138e-01|  2.9421e-09|  3.4748e-02|  1.0000e-02|  1.0000e-02|  1.0000e-02|   -4.687316|   -4.801738|   -5.783264|   -5.782959|   -4.950584|  -12.633942|    0.634955|
|          65|  7.2118e-01|  2.9330e-09|  3.4748e-02|  1.0000e-02|  1.0000e-02|  1.0000e-02|   -4.687267|   -4.802573|   -5.784101|   -5.783796|   -4.950485|  -12.635452|    0.639109|
|          66|  7.2110e-01|  2.9240e-09|  3.4748e-02|  1.0000e-02|  1.0000e-02|  1.0000e-02|   -4.687218|   -4.803401|   -5.784928|   -5.784623|   -4.950384|  -12.637004|    0.643262|
|          67|  7.2096e-01|  2.9151e-09|  3.4748e-02|  1.0000e-02|  1.0000e-02|  1.0000e-02|   -4.687167|   -4.804225|   -5.785744|   -5.785439|   -4.950281|  -12.638628|    0.647415|
|          68|  7.2087e-01|  2.9063e-09|  3.4748e-02|  1.0000e-02|  1.0000e-02|  1.0000e-02|   -4.687114|   -4.805042|   -5.786550|   -5.786245|   -4.950177|  -12.640326|    0.651569|
|          69|  7.2077e-01|  2.8975e-09|  3.4748e-02|  1.0000e-02|  1.0000e-02|  1.0000e-02|   -4.687060|   -4.805855|   -5.787345|   -5.787040|   -4.950071|  -12.642070|    0.655721|
|          70|  7.2074e-01|  2.8888e-09|  3.4748e-02|  1.0000e-02|  1.0000e-02|  1.0000e-02|   -4.687004|   -4.806662|   -5.788130|   -5.787825|   -4.949963|  -12.643824|    0.659874|
|          71|  7.2069e-01|  2.8802e-09|  3.4748e-02|  1.0000e-02|  1.0000e-02|  1.0000e-02|   -4.686947|   -4.807465|   -5.788904|   -5.788600|   -4.949855|  -12.645556|    0.664027|
|          72|  7.2066e-01|  2.8716e-09|  3.4748e-02|  1.0000e-02|  1.0000e-02|  1.0000e-02|   -4.686888|   -4.808263|   -5.789669|   -5.789365|   -4.949744|  -12.647245|    0.668179|
|          73|  7.2067e-01|  2.8631e-09|  3.4748e-02|  1.0000e-02|  1.0000e-02|  1.0000e-02|   -4.686828|   -4.809057|   -5.790424|   -5.790120|   -4.949632|  -12.648883|    0.672332|
|          74|  7.2065e-01|  2.8546e-09|  3.4748e-02|  1.0000e-02|  1.0000e-02|  1.0000e-02|   -4.686767|   -4.809846|   -5.791169|   -5.790865|   -4.949519|  -12.650474|    0.676484|
|          75|  7.2058e-01|  2.8462e-09|  3.4748e-02|  1.0000e-02|  1.0000e-02|  1.0000e-02|   -4.686704|   -4.810630|   -5.791903|   -5.791600|   -4.949404|  -12.652023|    0.680636|
|          76|  7.2042e-01|  2.8379e-09|  3.4748e-02|  1.0000e-02|  1.0000e-02|  1.0000e-02|   -4.686640|   -4.811411|   -5.792628|   -5.792325|   -4.949288|  -12.653536|    0.684789|
|          77|  7.2046e-01|  2.8297e-09|  3.4748e-02|  1.0000e-02|  1.0000e-02|  1.0000e-02|   -4.686574|   -4.812188|   -5.793344|   -5.793041|   -4.949170|  -12.655021|    0.688941|
|          78|  7.2048e-01|  2.8215e-09|  3.4748e-02|  1.0000e-02|  1.0000e-02|  1.0000e-02|   -4.686507|   -4.812961|   -5.794050|   -5.793747|   -4.949052|  -12.656480|    0.693094|
|          79|  7.2042e-01|  2.8133e-09|  3.4748e-02|  1.0000e-02|  1.0000e-02|  1.0000e-02|   -4.686439|   -4.813730|   -5.794746|   -5.794443|   -4.948931|  -12.657917|    0.697247|
|          80|  7.2041e-01|  2.8052e-09|  3.4748e-02|  1.0000e-02|  1.0000e-02|  1.0000e-02|   -4.686370|   -4.814495|   -5.795432|   -5.795130|   -4.948810|  -12.659336|    0.701400|
|          81|  7.2048e-01|  2.7972e-09|  3.4748e-02|  1.0000e-02|  1.0000e-02|  1.0000e-02|   -4.686299|   -4.815258|   -5.796110|   -5.795808|   -4.948687|  -12.660738|    0.705553|
|          82|  7.2051e-01|  2.7892e-09|  3.4748e-02|  1.0000e-02|  1.0000e-02|  1.0000e-02|   -4.686227|   -4.816016|   -5.796778|   -5.796476|   -4.948564|  -12.662124|    0.709706|
|          83|  7.2048e-01|  2.7813e-09|  3.4748e-02|  1.0000e-02|  1.0000e-02|  1.0000e-02|   -4.686154|   -4.816771|   -5.797436|   -5.797135|   -4.948438|  -12.663497|    0.713859|
|          84|  7.2037e-01|  2.7734e-09|  3.4748e-02|  1.0000e-02|  1.0000e-02|  1.0000e-02|   -4.686080|   -4.817523|   -5.798085|   -5.797784|   -4.948312|  -12.664856|    0.718013|
|          85|  7.2068e-01|  2.7656e-09|  3.4748e-02|  1.0000e-02|  1.0000e-02|  1.0000e-02|   -4.686004|   -4.818272|   -5.798726|   -5.798425|   -4.948185|  -12.666203|    0.722167|
|          86|  7.2060e-01|  2.7579e-09|  3.4748e-02|  1.0000e-02|  1.0000e-02|  1.0000e-02|   -4.685928|   -4.819018|   -5.799357|   -5.799056|   -4.948056|  -12.667539|    0.726322|
|          87|  7.2049e-01|  2.7501e-09|  3.4748e-02|  1.0000e-02|  1.0000e-02|  1.0000e-02|   -4.685850|   -4.819760|   -5.799979|   -5.799679|   -4.947926|  -12.668863|    0.730476|
|          88|  7.2039e-01|  2.7425e-09|  3.4748e-02|  1.0000e-02|  1.0000e-02|  1.0000e-02|   -4.685771|   -4.820500|   -5.800593|   -5.800293|   -4.947796|  -12.670177|    0.734632|
|          89|  7.2032e-01|  2.7349e-09|  3.4748e-02|  1.0000e-02|  1.0000e-02|  1.0000e-02|   -4.685691|   -4.821238|   -5.801197|   -5.800897|   -4.947664|  -12.671481|    0.738787|
|          90|  7.2029e-01|  2.7273e-09|  3.4748e-02|  1.0000e-02|  1.0000e-02|  1.0000e-02|   -4.685610|   -4.821972|   -5.801793|   -5.801493|   -4.947531|  -12.672776|    0.742943|
|          91|  7.2020e-01|  2.7198e-09|  3.4748e-02|  1.0000e-02|  1.0000e-02|  1.0000e-02|   -4.685527|   -4.822703|   -5.802380|   -5.802080|   -4.947397|  -12.674060|    0.747099|
|          92|  7.2007e-01|  2.7124e-09|  3.4748e-02|  1.0000e-02|  1.0000e-02|  1.0000e-02|   -4.685444|   -4.823432|   -5.802958|   -5.802659|   -4.947262|  -12.675336|    0.751256|
|          93|  7.2005e-01|  2.7050e-09|  3.4748e-02|  1.0000e-02|  1.0000e-02|  1.0000e-02|   -4.685360|   -4.824158|   -5.803528|   -5.803229|   -4.947125|  -12.676603|    0.755414|
|          94|  7.2012e-01|  2.6976e-09|  3.4748e-02|  1.0000e-02|  1.0000e-02|  1.0000e-02|   -4.685274|   -4.824881|   -5.804090|   -5.803791|   -4.946988|  -12.677861|    0.759571|
|          95|  7.2019e-01|  2.6903e-09|  3.4748e-02|  1.0000e-02|  1.0000e-02|  1.0000e-02|   -4.685188|   -4.825601|   -5.804644|   -5.804346|   -4.946850|  -12.679111|    0.763730|
|          96|  7.2021e-01|  2.6830e-09|  3.4748e-02|  1.0000e-02|  1.0000e-02|  1.0000e-02|   -4.685100|   -4.826319|   -5.805190|   -5.804892|   -4.946711|  -12.680352|    0.767889|
|          97|  7.2014e-01|  2.6758e-09|  3.4748e-02|  1.0000e-02|  1.0000e-02|  1.0000e-02|   -4.685012|   -4.827035|   -5.805728|   -5.805430|   -4.946571|  -12.681586|    0.772048|
|          98|  7.2022e-01|  2.6686e-09|  3.4748e-02|  1.0000e-02|  1.0000e-02|  1.0000e-02|   -4.684922|   -4.827749|   -5.806257|   -5.805960|   -4.946430|  -12.682811|    0.776208|
|          99|  7.2014e-01|  2.6615e-09|  3.4748e-02|  1.0000e-02|  1.0000e-02|  1.0000e-02|   -4.684832|   -4.828461|   -5.806778|   -5.806481|   -4.946288|  -12.684028|    0.780369|
|         100|  7.2005e-01|  2.6544e-09|  3.4748e-02|  1.0000e-02|  1.0000e-02|  1.0000e-02|   -4.684740|   -4.829171|   -5.807291|   -5.806994|   -4.946145|  -12.685237|    0.784530|
|         101|  7.1999e-01|  2.6473e-09|  3.4748e-02|  1.0000e-02|  1.0000e-02|  1.0000e-02|   -4.684648|   -4.829879|   -5.807795|   -5.807499|   -4.946001|  -12.686439|    0.788692|
|         102|  7.2008e-01|  2.6403e-09|  3.4748e-02|  1.0000e-02|  1.0000e-02|  1.0000e-02|   -4.684555|   -4.830585|   -5.808293|   -5.807997|   -4.945857|  -12.687633|    0.792855|
|         103|  7.2012e-01|  2.6333e-09|  3.4748e-02|  1.0000e-02|  1.0000e-02|  1.0000e-02|   -4.684461|   -4.831287|   -5.808785|   -5.808489|   -4.945711|  -12.688819|    0.797019|
|         104|  7.2001e-01|  2.6263e-09|  3.4748e-02|  1.0000e-02|  1.0000e-02|  1.0000e-02|   -4.684366|   -4.831986|   -5.809270|   -5.808974|   -4.945565|  -12.689998|    0.801183|
|         105|  7.1996e-01|  2.6194e-09|  3.4748e-02|  1.0000e-02|  1.0000e-02|  1.0000e-02|   -4.684270|   -4.832683|   -5.809747|   -5.809452|   -4.945418|  -12.691170|    0.805348|
|         106|  7.1999e-01|  2.6125e-09|  3.4748e-02|  1.0000e-02|  1.0000e-02|  1.0000e-02|   -4.684173|   -4.833379|   -5.810216|   -5.809921|   -4.945269|  -12.692335|    0.809513|
|         107|  7.1998e-01|  2.6056e-09|  3.4748e-02|  1.0000e-02|  1.0000e-02|  1.0000e-02|   -4.684075|   -4.834073|   -5.810678|   -5.810383|   -4.945121|  -12.693493|    0.813680|
|         108|  7.1991e-01|  2.5988e-09|  3.4748e-02|  1.0000e-02|  1.0000e-02|  1.0000e-02|   -4.683977|   -4.834767|   -5.811131|   -5.810837|   -4.944971|  -12.694644|    0.817847|
|         109|  7.1985e-01|  2.5920e-09|  3.4748e-02|  1.0000e-02|  1.0000e-02|  1.0000e-02|   -4.683878|   -4.835459|   -5.811577|   -5.811283|   -4.944820|  -12.695787|    0.822015|
|         110|  7.1977e-01|  2.5853e-09|  3.4748e-02|  1.0000e-02|  1.0000e-02|  1.0000e-02|   -4.683777|   -4.836150|   -5.812015|   -5.811721|   -4.944669|  -12.696924|    0.826184|
|         111|  7.1975e-01|  2.5786e-09|  3.4748e-02|  1.0000e-02|  1.0000e-02|  1.0000e-02|   -4.683676|   -4.836840|   -5.812446|   -5.812152|   -4.944517|  -12.698054|    0.830354|
|         112|  7.1966e-01|  2.5719e-09|  3.4748e-02|  1.0000e-02|  1.0000e-02|  1.0000e-02|   -4.683574|   -4.837529|   -5.812869|   -5.812575|   -4.944364|  -12.699178|    0.834524|
|         113|  7.1958e-01|  2.5653e-09|  3.4748e-02|  1.0000e-02|  1.0000e-02|  1.0000e-02|   -4.683472|   -4.838216|   -5.813284|   -5.812991|   -4.944211|  -12.700295|    0.838696|
|         114|  7.1950e-01|  2.5587e-09|  3.4748e-02|  1.0000e-02|  1.0000e-02|  1.0000e-02|   -4.683368|   -4.838902|   -5.813693|   -5.813400|   -4.944056|  -12.701405|    0.842868|
|         115|  7.1948e-01|  2.5522e-09|  3.4748e-02|  1.0000e-02|  1.0000e-02|  1.0000e-02|   -4.683264|   -4.839586|   -5.814095|   -5.813802|   -4.943901|  -12.702509|    0.847042|
|         116|  7.1944e-01|  2.5456e-09|  3.4748e-02|  1.0000e-02|  1.0000e-02|  1.0000e-02|   -4.683159|   -4.840270|   -5.814489|   -5.814197|   -4.943746|  -12.703607|    0.851216|
|         117|  7.1946e-01|  2.5392e-09|  3.4748e-02|  1.0000e-02|  1.0000e-02|  1.0000e-02|   -4.683053|   -4.840952|   -5.814875|   -5.814583|   -4.943589|  -12.704698|    0.855391|
|         118|  7.1938e-01|  2.5327e-09|  3.4748e-02|  1.0000e-02|  1.0000e-02|  1.0000e-02|   -4.682947|   -4.841634|   -5.815254|   -5.814963|   -4.943432|  -12.705783|    0.859567|
|         119|  7.1935e-01|  2.5263e-09|  3.4748e-02|  1.0000e-02|  1.0000e-02|  1.0000e-02|   -4.682839|   -4.842315|   -5.815626|   -5.815335|   -4.943274|  -12.706861|    0.863744|
|         120|  7.1955e-01|  2.5200e-09|  3.4748e-02|  1.0000e-02|  1.0000e-02|  1.0000e-02|   -4.682731|   -4.842996|   -5.815990|   -5.815699|   -4.943116|  -12.707933|    0.867923|
|         121|  7.1961e-01|  2.5136e-09|  3.4748e-02|  1.0000e-02|  1.0000e-02|  1.0000e-02|   -4.682622|   -4.843675|   -5.816347|   -5.816056|   -4.942957|  -12.708999|    0.872102|
|         122|  7.1957e-01|  2.5073e-09|  3.4748e-02|  1.0000e-02|  1.0000e-02|  1.0000e-02|   -4.682513|   -4.844354|   -5.816697|   -5.816406|   -4.942797|  -12.710059|    0.876282|
|         123|  7.1970e-01|  2.5011e-09|  3.4748e-02|  1.0000e-02|  1.0000e-02|  1.0000e-02|   -4.682402|   -4.845032|   -5.817039|   -5.816749|   -4.942636|  -12.711112|    0.880463|
|         124|  7.1968e-01|  2.4949e-09|  3.4748e-02|  1.0000e-02|  1.0000e-02|  1.0000e-02|   -4.682291|   -4.845709|   -5.817375|   -5.817085|   -4.942475|  -12.712160|    0.884646|
|         125|  7.1964e-01|  2.4887e-09|  3.4748e-02|  1.0000e-02|  1.0000e-02|  1.0000e-02|   -4.682180|   -4.846386|   -5.817703|   -5.817414|   -4.942313|  -12.713201|    0.888829|
|         126|  7.1961e-01|  2.4825e-09|  3.4748e-02|  1.0000e-02|  1.0000e-02|  1.0000e-02|   -4.682067|   -4.847062|   -5.818024|   -5.817735|   -4.942151|  -12.714237|    0.893013|
|         127|  7.1961e-01|  2.4764e-09|  3.4748e-02|  1.0000e-02|  1.0000e-02|  1.0000e-02|   -4.681954|   -4.847737|   -5.818338|   -5.818050|   -4.941988|  -12.715267|    0.897199|
|         128|  7.1957e-01|  2.4703e-09|  3.4748e-02|  1.0000e-02|  1.0000e-02|  1.0000e-02|   -4.681841|   -4.848412|   -5.818646|   -5.818357|   -4.941824|  -12.716291|    0.901386|
|         129|  7.1950e-01|  2.4643e-09|  3.4748e-02|  1.0000e-02|  1.0000e-02|  1.0000e-02|   -4.681726|   -4.849086|   -5.818946|   -5.818658|   -4.941660|  -12.717309|    0.905574|
|         130|  7.1951e-01|  2.4582e-09|  3.4748e-02|  1.0000e-02|  1.0000e-02|  1.0000e-02|   -4.681611|   -4.849759|   -5.819239|   -5.818951|   -4.941495|  -12.718321|    0.909763|
|         131|  7.1949e-01|  2.4522e-09|  3.4748e-02|  1.0000e-02|  1.0000e-02|  1.0000e-02|   -4.681495|   -4.850432|   -5.819526|   -5.819238|   -4.941330|  -12.719328|    0.913953|
|         132|  7.1948e-01|  2.4463e-09|  3.4748e-02|  1.0000e-02|  1.0000e-02|  1.0000e-02|   -4.681379|   -4.851104|   -5.819806|   -5.819518|   -4.941164|  -12.720329|    0.918144|
|         133|  7.1943e-01|  2.4403e-09|  3.4748e-02|  1.0000e-02|  1.0000e-02|  1.0000e-02|   -4.681262|   -4.851776|   -5.820079|   -5.819792|   -4.940997|  -12.721325|    0.922337|
|         134|  7.1938e-01|  2.4343e-09|  3.4748e-02|  1.0000e-02|  1.0000e-02|  1.0000e-02|   -4.681144|   -4.852447|   -5.820345|   -5.820059|   -4.940830|  -12.722315|    0.926530|
|         135|  7.1933e-01|  2.4284e-09|  3.4748e-02|  1.0000e-02|  1.0000e-02|  1.0000e-02|   -4.681026|   -4.853118|   -5.820605|   -5.820319|   -4.940662|  -12.723300|    0.930725|
|         136|  7.1927e-01|  2.4225e-09|  3.4748e-02|  1.0000e-02|  1.0000e-02|  1.0000e-02|   -4.680907|   -4.853788|   -5.820858|   -5.820572|   -4.940494|  -12.724279|    0.934921|
|         137|  7.1920e-01|  2.4166e-09|  3.4748e-02|  1.0000e-02|  1.0000e-02|  1.0000e-02|   -4.680787|   -4.854457|   -5.821105|   -5.820819|   -4.940325|  -12.725253|    0.939119|
|         138|  7.1915e-01|  2.4107e-09|  3.4748e-02|  1.0000e-02|  1.0000e-02|  1.0000e-02|   -4.680667|   -4.855126|   -5.821345|   -5.821060|   -4.940156|  -12.726221|    0.943318|
|         139|  7.1910e-01|  2.4049e-09|  3.4748e-02|  1.0000e-02|  1.0000e-02|  1.0000e-02|   -4.680547|   -4.855795|   -5.821579|   -5.821294|   -4.939986|  -12.727184|    0.947517|
|         140|  7.1910e-01|  2.3991e-09|  3.4748e-02|  1.0000e-02|  1.0000e-02|  1.0000e-02|   -4.680425|   -4.856463|   -5.821807|   -5.821522|   -4.939816|  -12.728142|    0.951719|
|         141|  7.1905e-01|  2.3933e-09|  3.4748e-02|  1.0000e-02|  1.0000e-02|  1.0000e-02|   -4.680303|   -4.857131|   -5.822028|   -5.821743|   -4.939645|  -12.729095|    0.955921|
|         142|  7.1901e-01|  2.3876e-09|  3.4748e-02|  1.0000e-02|  1.0000e-02|  1.0000e-02|   -4.680181|   -4.857798|   -5.822243|   -5.821958|   -4.939473|  -12.730042|    0.960125|
|         143|  7.1894e-01|  2.3819e-09|  3.4748e-02|  1.0000e-02|  1.0000e-02|  1.0000e-02|   -4.680058|   -4.858464|   -5.822451|   -5.822167|   -4.939301|  -12.730985|    0.964330|
|         144|  7.1888e-01|  2.3762e-09|  3.4748e-02|  1.0000e-02|  1.0000e-02|  1.0000e-02|   -4.679934|   -4.859131|   -5.822654|   -5.822370|   -4.939129|  -12.731924|    0.968536|
|         145|  7.1884e-01|  2.3705e-09|  3.4748e-02|  1.0000e-02|  1.0000e-02|  1.0000e-02|   -4.679810|   -4.859796|   -5.822850|   -5.822567|   -4.938956|  -12.732858|    0.972744|
|         146|  7.1876e-01|  2.3649e-09|  3.4748e-02|  1.0000e-02|  1.0000e-02|  1.0000e-02|   -4.679686|   -4.860462|   -5.823040|   -5.822758|   -4.938783|  -12.733787|    0.976953|
|         147|  7.1872e-01|  2.3593e-09|  3.4748e-02|  1.0000e-02|  1.0000e-02|  1.0000e-02|   -4.679560|   -4.861127|   -5.823225|   -5.822942|   -4.938609|  -12.734711|    0.981164|
|         148|  7.1869e-01|  2.3538e-09|  3.4748e-02|  1.0000e-02|  1.0000e-02|  1.0000e-02|   -4.679435|   -4.861791|   -5.823403|   -5.823121|   -4.938434|  -12.735631|    0.985375|
|         149|  7.1863e-01|  2.3482e-09|  3.4748e-02|  1.0000e-02|  1.0000e-02|  1.0000e-02|   -4.679308|   -4.862455|   -5.823575|   -5.823294|   -4.938260|  -12.736546|    0.989589|
|         150|  7.1864e-01|  2.3427e-09|  3.4748e-02|  1.0000e-02|  1.0000e-02|  1.0000e-02|   -4.679182|   -4.863118|   -5.823742|   -5.823460|   -4.938084|  -12.737456|    0.993803|
+-----------------------------------------------------------------------+
|        File Writing Summary       |              Filename             |
+-----------------------------------------------------------------------+
|SU2 binary restart                 |restart_flow.dat                   |
|Paraview                           |flow.vtu                           |
|Paraview surface                   |surface_flow.vtu                   |
+-----------------------------------------------------------------------+
+-------------------------------------------------------------------------------------------------------------------------------------------------------------------------------------+
|  Inner_Iter|   Time(sec)|      Min DT|      Max DT|     Min CFL|     Max CFL|     Avg CFL|    rms[Rho]|   rms[RhoU]|   rms[RhoV]|   rms[RhoW]|   rms[RhoE]|     rms[nu]|          CD|
+-------------------------------------------------------------------------------------------------------------------------------------------------------------------------------------+
|         151|  7.6790e-01|  2.3372e-09|  3.4748e-02|  1.0000e-02|  1.0000e-02|  1.0000e-02|   -4.679054|   -4.863782|   -5.823903|   -5.823621|   -4.937909|  -12.738362|    0.998019|
|         152|  7.6763e-01|  2.3318e-09|  3.4748e-02|  1.0000e-02|  1.0000e-02|  1.0000e-02|   -4.678927|   -4.864444|   -5.824058|   -5.823777|   -4.937732|  -12.739262|    1.002236|
|         153|  7.6754e-01|  2.3264e-09|  3.4748e-02|  1.0000e-02|  1.0000e-02|  1.0000e-02|   -4.678798|   -4.865106|   -5.824207|   -5.823926|   -4.937556|  -12.740158|    1.006455|
|         154|  7.6735e-01|  2.3210e-09|  3.4748e-02|  1.0000e-02|  1.0000e-02|  1.0000e-02|   -4.678670|   -4.865768|   -5.824350|   -5.824070|   -4.937379|  -12.741048|    1.010675|
|         155|  7.6744e-01|  2.3156e-09|  3.4748e-02|  1.0000e-02|  1.0000e-02|  1.0000e-02|   -4.678541|   -4.866430|   -5.824488|   -5.824208|   -4.937201|  -12.741934|    1.014897|
|         156|  7.6739e-01|  2.3102e-09|  3.4748e-02|  1.0000e-02|  1.0000e-02|  1.0000e-02|   -4.678411|   -4.867090|   -5.824621|   -5.824341|   -4.937024|  -12.742815|    1.019120|
|         157|  7.6753e-01|  2.3049e-09|  3.4748e-02|  1.0000e-02|  1.0000e-02|  1.0000e-02|   -4.678281|   -4.867751|   -5.824748|   -5.824468|   -4.936845|  -12.743692|    1.023345|
|         158|  7.6743e-01|  2.2996e-09|  3.4748e-02|  1.0000e-02|  1.0000e-02|  1.0000e-02|   -4.678150|   -4.868411|   -5.824869|   -5.824590|   -4.936667|  -12.744564|    1.027571|
|         159|  7.6720e-01|  2.2944e-09|  3.4748e-02|  1.0000e-02|  1.0000e-02|  1.0000e-02|   -4.678019|   -4.869071|   -5.824985|   -5.824706|   -4.936488|  -12.745431|    1.031798|
|         160|  7.6696e-01|  2.2891e-09|  3.4748e-02|  1.0000e-02|  1.0000e-02|  1.0000e-02|   -4.677888|   -4.869730|   -5.825096|   -5.824817|   -4.936308|  -12.746293|    1.036027|
|         161|  7.6677e-01|  2.2839e-09|  3.4748e-02|  1.0000e-02|  1.0000e-02|  1.0000e-02|   -4.677756|   -4.870389|   -5.825201|   -5.824923|   -4.936128|  -12.747151|    1.040258|
|         162|  7.6651e-01|  2.2787e-09|  3.4748e-02|  1.0000e-02|  1.0000e-02|  1.0000e-02|   -4.677623|   -4.871047|   -5.825301|   -5.825023|   -4.935948|  -12.748004|    1.044489|
|         163|  7.6637e-01|  2.2736e-09|  3.4748e-02|  1.0000e-02|  1.0000e-02|  1.0000e-02|   -4.677490|   -4.871705|   -5.825396|   -5.825119|   -4.935767|  -12.748852|    1.048723|
|         164|  7.6612e-01|  2.2684e-09|  3.4748e-02|  1.0000e-02|  1.0000e-02|  1.0000e-02|   -4.677357|   -4.872363|   -5.825486|   -5.825209|   -4.935586|  -12.749696|    1.052958|
|         165|  7.6598e-01|  2.2633e-09|  3.4748e-02|  1.0000e-02|  1.0000e-02|  1.0000e-02|   -4.677223|   -4.873020|   -5.825570|   -5.825293|   -4.935405|  -12.750535|    1.057194|
|         166|  7.6570e-01|  2.2582e-09|  3.4748e-02|  1.0000e-02|  1.0000e-02|  1.0000e-02|   -4.677089|   -4.873677|   -5.825650|   -5.825373|   -4.935223|  -12.751370|    1.061432|
|         167|  7.6547e-01|  2.2531e-09|  3.4748e-02|  1.0000e-02|  1.0000e-02|  1.0000e-02|   -4.676955|   -4.874333|   -5.825724|   -5.825448|   -4.935041|  -12.752200|    1.065672|
|         168|  7.6526e-01|  2.2481e-09|  3.4748e-02|  1.0000e-02|  1.0000e-02|  1.0000e-02|   -4.676820|   -4.874989|   -5.825793|   -5.825517|   -4.934858|  -12.753026|    1.069913|
|         169|  7.6500e-01|  2.2431e-09|  3.4748e-02|  1.0000e-02|  1.0000e-02|  1.0000e-02|   -4.676684|   -4.875644|   -5.825858|   -5.825582|   -4.934676|  -12.753847|    1.074156|
|         170|  7.6490e-01|  2.2380e-09|  3.4748e-02|  1.0000e-02|  1.0000e-02|  1.0000e-02|   -4.676549|   -4.876299|   -5.825917|   -5.825642|   -4.934492|  -12.754664|    1.078400|
|         171|  7.6478e-01|  2.2331e-09|  3.4748e-02|  1.0000e-02|  1.0000e-02|  1.0000e-02|   -4.676413|   -4.876953|   -5.825971|   -5.825696|   -4.934309|  -12.755477|    1.082646|
|         172|  7.6451e-01|  2.2281e-09|  3.4748e-02|  1.0000e-02|  1.0000e-02|  1.0000e-02|   -4.676276|   -4.877607|   -5.826021|   -5.825746|   -4.934125|  -12.756285|    1.086893|
|         173|  7.6423e-01|  2.2232e-09|  3.4748e-02|  1.0000e-02|  1.0000e-02|  1.0000e-02|   -4.676140|   -4.878260|   -5.826065|   -5.825791|   -4.933941|  -12.757091|    1.091142|
|         174|  7.6388e-01|  2.2182e-09|  3.4748e-02|  1.0000e-02|  1.0000e-02|  1.0000e-02|   -4.676003|   -4.878913|   -5.826105|   -5.825831|   -4.933757|  -12.757894|    1.095393|
|         175|  7.6354e-01|  2.2134e-09|  3.4748e-02|  1.0000e-02|  1.0000e-02|  1.0000e-02|   -4.675865|   -4.879566|   -5.826140|   -5.825866|   -4.933572|  -12.758694|    1.099645|
|         176|  7.6321e-01|  2.2085e-09|  3.4748e-02|  1.0000e-02|  1.0000e-02|  1.0000e-02|   -4.675728|   -4.880218|   -5.826170|   -5.825896|   -4.933388|  -12.759495|    1.103898|
|         177|  7.6288e-01|  2.2036e-09|  3.4748e-02|  1.0000e-02|  1.0000e-02|  1.0000e-02|   -4.675590|   -4.880870|   -5.826195|   -5.825921|   -4.933203|  -12.760296|    1.108154|
|         178|  7.6261e-01|  2.1988e-09|  3.4748e-02|  1.0000e-02|  1.0000e-02|  1.0000e-02|   -4.675452|   -4.881521|   -5.826215|   -5.825942|   -4.933018|  -12.761101|    1.112411|
|         179|  7.6229e-01|  2.1940e-09|  3.4748e-02|  1.0000e-02|  1.0000e-02|  1.0000e-02|   -4.675314|   -4.882173|   -5.826230|   -5.825957|   -4.932834|  -12.761911|    1.116669|
|         180|  7.6196e-01|  2.1892e-09|  3.4748e-02|  1.0000e-02|  1.0000e-02|  1.0000e-02|   -4.675176|   -4.882823|   -5.826241|   -5.825968|   -4.932649|  -12.762730|    1.120930|
|         181|  7.6173e-01|  2.1845e-09|  3.4748e-02|  1.0000e-02|  1.0000e-02|  1.0000e-02|   -4.675038|   -4.883474|   -5.826247|   -5.825975|   -4.932463|  -12.763559|    1.125191|
|         182|  7.6160e-01|  2.1798e-09|  3.4748e-02|  1.0000e-02|  1.0000e-02|  1.0000e-02|   -4.674899|   -4.884124|   -5.826248|   -5.825976|   -4.932278|  -12.764398|    1.129455|
|         183|  7.6128e-01|  2.1751e-09|  3.4748e-02|  1.0000e-02|  1.0000e-02|  1.0000e-02|   -4.674760|   -4.884774|   -5.826245|   -5.825974|   -4.932092|  -12.765243|    1.133720|
|         184|  7.6098e-01|  2.1704e-09|  3.4748e-02|  1.0000e-02|  1.0000e-02|  1.0000e-02|   -4.674621|   -4.885423|   -5.826238|   -5.825966|   -4.931906|  -12.766090|    1.137987|
|         185|  7.6081e-01|  2.1657e-09|  3.4748e-02|  1.0000e-02|  1.0000e-02|  1.0000e-02|   -4.674481|   -4.886072|   -5.826226|   -5.825955|   -4.931720|  -12.766936|    1.142255|
|         186|  7.6052e-01|  2.1611e-09|  3.4748e-02|  1.0000e-02|  1.0000e-02|  1.0000e-02|   -4.674341|   -4.886720|   -5.826210|   -5.825939|   -4.931533|  -12.767776|    1.146525|
|         187|  7.6020e-01|  2.1564e-09|  3.4748e-02|  1.0000e-02|  1.0000e-02|  1.0000e-02|   -4.674201|   -4.887368|   -5.826189|   -5.825919|   -4.931347|  -12.768608|    1.150797|
|         188|  7.5992e-01|  2.1518e-09|  3.4748e-02|  1.0000e-02|  1.0000e-02|  1.0000e-02|   -4.674060|   -4.888015|   -5.826165|   -5.825895|   -4.931159|  -12.769431|    1.155070|
|         189|  7.5962e-01|  2.1472e-09|  3.4748e-02|  1.0000e-02|  1.0000e-02|  1.0000e-02|   -4.673919|   -4.888661|   -5.826136|   -5.825867|   -4.930972|  -12.770242|    1.159345|
|         190|  7.5937e-01|  2.1427e-09|  3.4748e-02|  1.0000e-02|  1.0000e-02|  1.0000e-02|   -4.673778|   -4.889307|   -5.826104|   -5.825835|   -4.930784|  -12.771043|    1.163622|
|         191|  7.5910e-01|  2.1381e-09|  3.4748e-02|  1.0000e-02|  1.0000e-02|  1.0000e-02|   -4.673636|   -4.889952|   -5.826067|   -5.825798|   -4.930596|  -12.771833|    1.167901|
|         192|  7.5881e-01|  2.1336e-09|  3.4748e-02|  1.0000e-02|  1.0000e-02|  1.0000e-02|   -4.673494|   -4.890597|   -5.826027|   -5.825758|   -4.930408|  -12.772614|    1.172181|
|         193|  7.5852e-01|  2.1291e-09|  3.4748e-02|  1.0000e-02|  1.0000e-02|  1.0000e-02|   -4.673352|   -4.891240|   -5.825982|   -5.825714|   -4.930219|  -12.773386|    1.176463|
|         194|  7.5832e-01|  2.1247e-09|  3.4748e-02|  1.0000e-02|  1.0000e-02|  1.0000e-02|   -4.673209|   -4.891884|   -5.825934|   -5.825666|   -4.930030|  -12.774150|    1.180746|
|         195|  7.5807e-01|  2.1202e-09|  3.4748e-02|  1.0000e-02|  1.0000e-02|  1.0000e-02|   -4.673066|   -4.892526|   -5.825882|   -5.825614|   -4.929841|  -12.774907|    1.185031|
|         196|  7.5779e-01|  2.1158e-09|  3.4748e-02|  1.0000e-02|  1.0000e-02|  1.0000e-02|   -4.672922|   -4.893168|   -5.825826|   -5.825559|   -4.929651|  -12.775657|    1.189318|
|         197|  7.5756e-01|  2.1113e-09|  3.4748e-02|  1.0000e-02|  1.0000e-02|  1.0000e-02|   -4.672779|   -4.893809|   -5.825767|   -5.825500|   -4.929461|  -12.776400|    1.193607|
|         198|  7.5730e-01|  2.1070e-09|  3.4748e-02|  1.0000e-02|  1.0000e-02|  1.0000e-02|   -4.672634|   -4.894449|   -5.825704|   -5.825437|   -4.929271|  -12.777137|    1.197898|
|         199|  7.5704e-01|  2.1026e-09|  3.4748e-02|  1.0000e-02|  1.0000e-02|  1.0000e-02|   -4.672490|   -4.895088|   -5.825637|   -5.825370|   -4.929080|  -12.777868|    1.202190|
|         200|  7.5685e-01|  2.0982e-09|  3.4748e-02|  1.0000e-02|  1.0000e-02|  1.0000e-02|   -4.672345|   -4.895727|   -5.825567|   -5.825300|   -4.928889|  -12.778593|    1.206484|
|         201|  7.5669e-01|  2.0939e-09|  3.4748e-02|  1.0000e-02|  1.0000e-02|  1.0000e-02|   -4.672200|   -4.896365|   -5.825493|   -5.825227|   -4.928698|  -12.779314|    1.210779|
|         202|  7.5647e-01|  2.0896e-09|  3.4748e-02|  1.0000e-02|  1.0000e-02|  1.0000e-02|   -4.672055|   -4.897002|   -5.825416|   -5.825150|   -4.928507|  -12.780029|    1.215077|
|         203|  7.5620e-01|  2.0853e-09|  3.4748e-02|  1.0000e-02|  1.0000e-02|  1.0000e-02|   -4.671909|   -4.897638|   -5.825335|   -5.825069|   -4.928315|  -12.780739|    1.219376|
|         204|  7.5606e-01|  2.0810e-09|  3.4748e-02|  1.0000e-02|  1.0000e-02|  1.0000e-02|   -4.671763|   -4.898274|   -5.825251|   -5.824985|   -4.928123|  -12.781445|    1.223677|
|         205|  7.5573e-01|  2.0767e-09|  3.4748e-02|  1.0000e-02|  1.0000e-02|  1.0000e-02|   -4.671617|   -4.898908|   -5.825163|   -5.824898|   -4.927931|  -12.782146|    1.227979|
|         206|  7.5536e-01|  2.0725e-09|  3.4748e-02|  1.0000e-02|  1.0000e-02|  1.0000e-02|   -4.671471|   -4.899542|   -5.825073|   -5.824808|   -4.927738|  -12.782842|    1.232284|
|         207|  7.5502e-01|  2.0683e-09|  3.4748e-02|  1.0000e-02|  1.0000e-02|  1.0000e-02|   -4.671324|   -4.900175|   -5.824979|   -5.824714|   -4.927545|  -12.783535|    1.236590|
|         208|  7.5476e-01|  2.0641e-09|  3.4748e-02|  1.0000e-02|  1.0000e-02|  1.0000e-02|   -4.671177|   -4.900807|   -5.824882|   -5.824617|   -4.927352|  -12.784223|    1.240898|
|         209|  7.5453e-01|  2.0599e-09|  3.4748e-02|  1.0000e-02|  1.0000e-02|  1.0000e-02|   -4.671029|   -4.901437|   -5.824781|   -5.824517|   -4.927159|  -12.784906|    1.245208|
|         210|  7.5418e-01|  2.0557e-09|  3.4748e-02|  1.0000e-02|  1.0000e-02|  1.0000e-02|   -4.670881|   -4.902067|   -5.824678|   -5.824414|   -4.926965|  -12.785586|    1.249519|
|         211|  7.5386e-01|  2.0516e-09|  3.4748e-02|  1.0000e-02|  1.0000e-02|  1.0000e-02|   -4.670733|   -4.902696|   -5.824572|   -5.824308|   -4.926771|  -12.786262|    1.253833|
|         212|  7.5357e-01|  2.0474e-09|  3.4748e-02|  1.0000e-02|  1.0000e-02|  1.0000e-02|   -4.670585|   -4.903324|   -5.824462|   -5.824199|   -4.926577|  -12.786934|    1.258148|
|         213|  7.5338e-01|  2.0433e-09|  3.4748e-02|  1.0000e-02|  1.0000e-02|  1.0000e-02|   -4.670437|   -4.903951|   -5.824350|   -5.824087|   -4.926383|  -12.787602|    1.262465|
|         214|  7.5318e-01|  2.0392e-09|  3.4748e-02|  1.0000e-02|  1.0000e-02|  1.0000e-02|   -4.670288|   -4.904577|   -5.824234|   -5.823971|   -4.926188|  -12.788266|    1.266783|
|         215|  7.5312e-01|  2.0351e-09|  3.4748e-02|  1.0000e-02|  1.0000e-02|  1.0000e-02|   -4.670139|   -4.905202|   -5.824116|   -5.823853|   -4.925993|  -12.788927|    1.271104|
|         216|  7.5297e-01|  2.0311e-09|  3.4748e-02|  1.0000e-02|  1.0000e-02|  1.0000e-02|   -4.669989|   -4.905826|   -5.823995|   -5.823733|   -4.925798|  -12.789584|    1.275426|
|         217|  7.5293e-01|  2.0270e-09|  3.4748e-02|  1.0000e-02|  1.0000e-02|  1.0000e-02|   -4.669840|   -4.906448|   -5.823871|   -5.823609|   -4.925603|  -12.790237|    1.279751|
|         218|  7.5281e-01|  2.0230e-09|  3.4748e-02|  1.0000e-02|  1.0000e-02|  1.0000e-02|   -4.669690|   -4.907070|   -5.823744|   -5.823482|   -4.925407|  -12.790887|    1.284076|
|         219|  7.5265e-01|  2.0190e-09|  3.4748e-02|  1.0000e-02|  1.0000e-02|  1.0000e-02|   -4.669540|   -4.907690|   -5.823614|   -5.823353|   -4.925211|  -12.791533|    1.288404|
|         220|  7.5248e-01|  2.0150e-09|  3.4748e-02|  1.0000e-02|  1.0000e-02|  1.0000e-02|   -4.669389|   -4.908309|   -5.823482|   -5.823221|   -4.925015|  -12.792176|    1.292734|
|         221|  7.5230e-01|  2.0111e-09|  3.4748e-02|  1.0000e-02|  1.0000e-02|  1.0000e-02|   -4.669238|   -4.908928|   -5.823347|   -5.823087|   -4.924818|  -12.792815|    1.297065|
|         222|  7.5213e-01|  2.0071e-09|  3.4748e-02|  1.0000e-02|  1.0000e-02|  1.0000e-02|   -4.669088|   -4.909544|   -5.823210|   -5.822949|   -4.924621|  -12.793451|    1.301399|
|         223|  7.5195e-01|  2.0032e-09|  3.4748e-02|  1.0000e-02|  1.0000e-02|  1.0000e-02|   -4.668936|   -4.910160|   -5.823070|   -5.822810|   -4.924424|  -12.794083|    1.305734|
|         224|  7.5178e-01|  1.9992e-09|  3.4748e-02|  1.0000e-02|  1.0000e-02|  1.0000e-02|   -4.668785|   -4.910774|   -5.822927|   -5.822667|   -4.924227|  -12.794712|    1.310071|
|         225|  7.5159e-01|  1.9953e-09|  3.4748e-02|  1.0000e-02|  1.0000e-02|  1.0000e-02|   -4.668633|   -4.911387|   -5.822782|   -5.822522|   -4.924030|  -12.795338|    1.314409|
|         226|  7.5140e-01|  1.9915e-09|  3.4748e-02|  1.0000e-02|  1.0000e-02|  1.0000e-02|   -4.668481|   -4.911999|   -5.822634|   -5.822375|   -4.923832|  -12.795960|    1.318750|
|         227|  7.5123e-01|  1.9876e-09|  3.4748e-02|  1.0000e-02|  1.0000e-02|  1.0000e-02|   -4.668329|   -4.912609|   -5.822484|   -5.822225|   -4.923634|  -12.796579|    1.323093|
|         228|  7.5103e-01|  1.9837e-09|  3.4748e-02|  1.0000e-02|  1.0000e-02|  1.0000e-02|   -4.668177|   -4.913218|   -5.822331|   -5.822073|   -4.923436|  -12.797195|    1.327437|
|         229|  7.5082e-01|  1.9799e-09|  3.4748e-02|  1.0000e-02|  1.0000e-02|  1.0000e-02|   -4.668024|   -4.913826|   -5.822176|   -5.821918|   -4.923237|  -12.797807|    1.331783|
|         230|  7.5068e-01|  1.9761e-09|  3.4748e-02|  1.0000e-02|  1.0000e-02|  1.0000e-02|   -4.667871|   -4.914432|   -5.822019|   -5.821761|   -4.923039|  -12.798416|    1.336131|
|         231|  7.5057e-01|  1.9723e-09|  3.4748e-02|  1.0000e-02|  1.0000e-02|  1.0000e-02|   -4.667718|   -4.915037|   -5.821860|   -5.821602|   -4.922840|  -12.799023|    1.340481|
|         232|  7.5046e-01|  1.9685e-09|  3.4748e-02|  1.0000e-02|  1.0000e-02|  1.0000e-02|   -4.667565|   -4.915640|   -5.821698|   -5.821441|   -4.922641|  -12.799626|    1.344833|
|         233|  7.5025e-01|  1.9647e-09|  3.4748e-02|  1.0000e-02|  1.0000e-02|  1.0000e-02|   -4.667411|   -4.916242|   -5.821534|   -5.821277|   -4.922442|  -12.800226|    1.349186|
|         234|  7.5005e-01|  1.9610e-09|  3.4748e-02|  1.0000e-02|  1.0000e-02|  1.0000e-02|   -4.667258|   -4.916843|   -5.821368|   -5.821111|   -4.922242|  -12.800822|    1.353542|
|         235|  7.4985e-01|  1.9572e-09|  3.4748e-02|  1.0000e-02|  1.0000e-02|  1.0000e-02|   -4.667104|   -4.917442|   -5.821199|   -5.820943|   -4.922042|  -12.801416|    1.357899|
|         236|  7.4969e-01|  1.9535e-09|  3.4748e-02|  1.0000e-02|  1.0000e-02|  1.0000e-02|   -4.666950|   -4.918039|   -5.821029|   -5.820773|   -4.921842|  -12.802007|    1.362258|
|         237|  7.4950e-01|  1.9498e-09|  3.4748e-02|  1.0000e-02|  1.0000e-02|  1.0000e-02|   -4.666795|   -4.918635|   -5.820856|   -5.820601|   -4.921642|  -12.802595|    1.366619|
|         238|  7.4930e-01|  1.9461e-09|  3.4748e-02|  1.0000e-02|  1.0000e-02|  1.0000e-02|   -4.666641|   -4.919229|   -5.820682|   -5.820426|   -4.921442|  -12.803180|    1.370982|
|         239|  7.4912e-01|  1.9424e-09|  3.4748e-02|  1.0000e-02|  1.0000e-02|  1.0000e-02|   -4.666486|   -4.919822|   -5.820505|   -5.820250|   -4.921241|  -12.803761|    1.375347|
|         240|  7.4895e-01|  1.9388e-09|  3.4748e-02|  1.0000e-02|  1.0000e-02|  1.0000e-02|   -4.666331|   -4.920413|   -5.820326|   -5.820071|   -4.921040|  -12.804340|    1.379714|
|         241|  7.4878e-01|  1.9351e-09|  3.4748e-02|  1.0000e-02|  1.0000e-02|  1.0000e-02|   -4.666176|   -4.921002|   -5.820146|   -5.819891|   -4.920839|  -12.804916|    1.384082|
|         242|  7.4862e-01|  1.9315e-09|  3.4748e-02|  1.0000e-02|  1.0000e-02|  1.0000e-02|   -4.666020|   -4.921590|   -5.819963|   -5.819709|   -4.920638|  -12.805489|    1.388453|
|         243|  7.4843e-01|  1.9279e-09|  3.4748e-02|  1.0000e-02|  1.0000e-02|  1.0000e-02|   -4.665865|   -4.922176|   -5.819779|   -5.819525|   -4.920436|  -12.806060|    1.392825|
|         244|  7.4823e-01|  1.9243e-09|  3.4748e-02|  1.0000e-02|  1.0000e-02|  1.0000e-02|   -4.665709|   -4.922760|   -5.819592|   -5.819339|   -4.920234|  -12.806627|    1.397200|
|         245|  7.4803e-01|  1.9207e-09|  3.4748e-02|  1.0000e-02|  1.0000e-02|  1.0000e-02|   -4.665553|   -4.923342|   -5.819404|   -5.819151|   -4.920033|  -12.807192|    1.401576|
|         246|  7.4805e-01|  1.9171e-09|  3.4748e-02|  1.0000e-02|  1.0000e-02|  1.0000e-02|   -4.665397|   -4.923923|   -5.819214|   -5.818961|   -4.919830|  -12.807753|    1.405954|
|         247|  7.4804e-01|  1.9136e-09|  3.4748e-02|  1.0000e-02|  1.0000e-02|  1.0000e-02|   -4.665241|   -4.924502|   -5.819022|   -5.818770|   -4.919628|  -12.808312|    1.410334|
|         248|  7.4760e-01|  1.9100e-09|  3.4748e-02|  1.0000e-02|  1.0000e-02|  1.0000e-02|   -4.665084|   -4.925079|   -5.818829|   -5.818576|   -4.919426|  -12.808869|    1.414715|
|         249|  7.4723e-01|  1.9065e-09|  3.4748e-02|  1.0000e-02|  1.0000e-02|  1.0000e-02|   -4.664928|   -4.925654|   -5.818633|   -5.818381|   -4.919223|  -12.809422|    1.419099|
|         250|  7.4680e-01|  1.9030e-09|  3.4748e-02|  1.0000e-02|  1.0000e-02|  1.0000e-02|   -4.664771|   -4.926228|   -5.818436|   -5.818185|   -4.919020|  -12.809973|    1.423485|
|         251|  7.4638e-01|  1.8995e-09|  3.4748e-02|  1.0000e-02|  1.0000e-02|  1.0000e-02|   -4.664614|   -4.926800|   -5.818238|   -5.817986|   -4.918817|  -12.810521|    1.427872|
|         252|  7.4592e-01|  1.8960e-09|  3.4748e-02|  1.0000e-02|  1.0000e-02|  1.0000e-02|   -4.664457|   -4.927370|   -5.818037|   -5.817786|   -4.918614|  -12.811066|    1.432262|
|         253|  7.4555e-01|  1.8926e-09|  3.4748e-02|  1.0000e-02|  1.0000e-02|  1.0000e-02|   -4.664300|   -4.927938|   -5.817836|   -5.817585|   -4.918411|  -12.811608|    1.436653|
|         254|  7.4508e-01|  1.8891e-09|  3.4748e-02|  1.0000e-02|  1.0000e-02|  1.0000e-02|   -4.664143|   -4.928505|   -5.817632|   -5.817382|   -4.918208|  -12.812148|    1.441046|
|         255|  7.4467e-01|  1.8857e-09|  3.4748e-02|  1.0000e-02|  1.0000e-02|  1.0000e-02|   -4.663986|   -4.929070|   -5.817427|   -5.817177|   -4.918004|  -12.812685|    1.445441|
|         256|  7.4424e-01|  1.8823e-09|  3.4748e-02|  1.0000e-02|  1.0000e-02|  1.0000e-02|   -4.663828|   -4.929633|   -5.817221|   -5.816971|   -4.917801|  -12.813220|    1.449838|
|         257|  7.4381e-01|  1.8789e-09|  3.4748e-02|  1.0000e-02|  1.0000e-02|  1.0000e-02|   -4.663671|   -4.930194|   -5.817013|   -5.816763|   -4.917597|  -12.813752|    1.454237|
|         258|  7.4339e-01|  1.8755e-09|  3.4748e-02|  1.0000e-02|  1.0000e-02|  1.0000e-02|   -4.663513|   -4.930752|   -5.816803|   -5.816554|   -4.917393|  -12.814281|    1.458638|
|         259|  7.4300e-01|  1.8721e-09|  3.4748e-02|  1.0000e-02|  1.0000e-02|  1.0000e-02|   -4.663355|   -4.931309|   -5.816592|   -5.816343|   -4.917189|  -12.814807|    1.463041|
|         260|  7.4256e-01|  1.8687e-09|  3.4748e-02|  1.0000e-02|  1.0000e-02|  1.0000e-02|   -4.663197|   -4.931864|   -5.816379|   -5.816131|   -4.916984|  -12.815331|    1.467445|
|         261|  7.4223e-01|  1.8654e-09|  3.4748e-02|  1.0000e-02|  1.0000e-02|  1.0000e-02|   -4.663039|   -4.932416|   -5.816165|   -5.815917|   -4.916780|  -12.815853|    1.471852|
|         262|  7.4179e-01|  1.8621e-09|  3.4748e-02|  1.0000e-02|  1.0000e-02|  1.0000e-02|   -4.662881|   -4.932966|   -5.815950|   -5.815702|   -4.916575|  -12.816372|    1.476260|
|         263|  7.4138e-01|  1.8587e-09|  3.4748e-02|  1.0000e-02|  1.0000e-02|  1.0000e-02|   -4.662722|   -4.933514|   -5.815733|   -5.815485|   -4.916370|  -12.816888|    1.480671|
|         264|  7.4097e-01|  1.8554e-09|  3.4748e-02|  1.0000e-02|  1.0000e-02|  1.0000e-02|   -4.662564|   -4.934060|   -5.815515|   -5.815268|   -4.916165|  -12.817402|    1.485083|
|         265|  7.4059e-01|  1.8521e-09|  3.4748e-02|  1.0000e-02|  1.0000e-02|  1.0000e-02|   -4.662405|   -4.934603|   -5.815295|   -5.815048|   -4.915960|  -12.817914|    1.489497|
|         266|  7.4018e-01|  1.8489e-09|  3.4748e-02|  1.0000e-02|  1.0000e-02|  1.0000e-02|   -4.662246|   -4.935144|   -5.815074|   -5.814828|   -4.915755|  -12.818423|    1.493913|
|         267|  7.3982e-01|  1.8456e-09|  3.4748e-02|  1.0000e-02|  1.0000e-02|  1.0000e-02|   -4.662087|   -4.935683|   -5.814852|   -5.814606|   -4.915549|  -12.818930|    1.498331|
|         268|  7.3941e-01|  1.8423e-09|  3.4748e-02|  1.0000e-02|  1.0000e-02|  1.0000e-02|   -4.661928|   -4.936219|   -5.814629|   -5.814383|   -4.915344|  -12.819434|    1.502751|
|         269|  7.3900e-01|  1.8391e-09|  3.4748e-02|  1.0000e-02|  1.0000e-02|  1.0000e-02|   -4.661769|   -4.936753|   -5.814404|   -5.814158|   -4.915138|  -12.819937|    1.507173|
|         270|  7.3865e-01|  1.8359e-09|  3.4748e-02|  1.0000e-02|  1.0000e-02|  1.0000e-02|   -4.661609|   -4.937284|   -5.814178|   -5.813932|   -4.914932|  -12.820437|    1.511597|
|         271|  7.3827e-01|  1.8327e-09|  3.4748e-02|  1.0000e-02|  1.0000e-02|  1.0000e-02|   -4.661450|   -4.937813|   -5.813950|   -5.813705|   -4.914726|  -12.820935|    1.516023|
|         272|  7.3789e-01|  1.8295e-09|  3.4748e-02|  1.0000e-02|  1.0000e-02|  1.0000e-02|   -4.661290|   -4.938340|   -5.813722|   -5.813477|   -4.914519|  -12.821430|    1.520450|
|         273|  7.3750e-01|  1.8263e-09|  3.4748e-02|  1.0000e-02|  1.0000e-02|  1.0000e-02|   -4.661131|   -4.938864|   -5.813492|   -5.813248|   -4.914313|  -12.821923|    1.524880|
|         274|  7.3711e-01|  1.8231e-09|  3.4748e-02|  1.0000e-02|  1.0000e-02|  1.0000e-02|   -4.660971|   -4.939386|   -5.813261|   -5.813017|   -4.914107|  -12.822414|    1.529311|
|         275|  7.3672e-01|  1.8200e-09|  3.4748e-02|  1.0000e-02|  1.0000e-02|  1.0000e-02|   -4.660811|   -4.939905|   -5.813029|   -5.812785|   -4.913900|  -12.822903|    1.533745|
|         276|  7.3633e-01|  1.8168e-09|  3.4748e-02|  1.0000e-02|  1.0000e-02|  1.0000e-02|   -4.660651|   -4.940422|   -5.812796|   -5.812553|   -4.913693|  -12.823389|    1.538180|
|         277|  7.3598e-01|  1.8137e-09|  3.4748e-02|  1.0000e-02|  1.0000e-02|  1.0000e-02|   -4.660491|   -4.940936|   -5.812562|   -5.812319|   -4.913486|  -12.823873|    1.542617|
|         278|  7.3568e-01|  1.8106e-09|  3.4748e-02|  1.0000e-02|  1.0000e-02|  1.0000e-02|   -4.660331|   -4.941448|   -5.812326|   -5.812083|   -4.913279|  -12.824354|    1.547056|
|         279|  7.3530e-01|  1.8075e-09|  3.4748e-02|  1.0000e-02|  1.0000e-02|  1.0000e-02|   -4.660171|   -4.941957|   -5.812090|   -5.811847|   -4.913072|  -12.824834|    1.551497|
|         280|  7.3493e-01|  1.8044e-09|  3.4748e-02|  1.0000e-02|  1.0000e-02|  1.0000e-02|   -4.660011|   -4.942464|   -5.811852|   -5.811610|   -4.912865|  -12.825311|    1.555940|
|         281|  7.3456e-01|  1.8013e-09|  3.4748e-02|  1.0000e-02|  1.0000e-02|  1.0000e-02|   -4.659850|   -4.942969|   -5.811613|   -5.811372|   -4.912658|  -12.825785|    1.560385|
|         282|  7.3420e-01|  1.7982e-09|  3.4748e-02|  1.0000e-02|  1.0000e-02|  1.0000e-02|   -4.659690|   -4.943472|   -5.811374|   -5.811132|   -4.912451|  -12.826258|    1.564832|
|         283|  7.3388e-01|  1.7952e-09|  3.4748e-02|  1.0000e-02|  1.0000e-02|  1.0000e-02|   -4.659530|   -4.943972|   -5.811133|   -5.810892|   -4.912244|  -12.826728|    1.569281|
|         284|  7.3353e-01|  1.7921e-09|  3.4748e-02|  1.0000e-02|  1.0000e-02|  1.0000e-02|   -4.659369|   -4.944470|   -5.810892|   -5.810651|   -4.912036|  -12.827196|    1.573732|
|         285|  7.3322e-01|  1.7891e-09|  3.4748e-02|  1.0000e-02|  1.0000e-02|  1.0000e-02|   -4.659209|   -4.944965|   -5.810649|   -5.810408|   -4.911829|  -12.827662|    1.578185|
|         286|  7.3288e-01|  1.7861e-09|  3.4748e-02|  1.0000e-02|  1.0000e-02|  1.0000e-02|   -4.659048|   -4.945456|   -5.810405|   -5.810165|   -4.911621|  -12.828126|    1.582639|
|         287|  7.3254e-01|  1.7831e-09|  3.4748e-02|  1.0000e-02|  1.0000e-02|  1.0000e-02|   -4.658888|   -4.945945|   -5.810161|   -5.809921|   -4.911413|  -12.828587|    1.587096|
|         288|  7.3221e-01|  1.7801e-09|  3.4748e-02|  1.0000e-02|  1.0000e-02|  1.0000e-02|   -4.658727|   -4.946431|   -5.809916|   -5.809676|   -4.911205|  -12.829047|    1.591554|
|         289|  7.3186e-01|  1.7771e-09|  3.4748e-02|  1.0000e-02|  1.0000e-02|  1.0000e-02|   -4.658566|   -4.946914|   -5.809669|   -5.809430|   -4.910997|  -12.829504|    1.596015|
|         290|  7.3151e-01|  1.7742e-09|  3.4748e-02|  1.0000e-02|  1.0000e-02|  1.0000e-02|   -4.658405|   -4.947394|   -5.809422|   -5.809183|   -4.910789|  -12.829959|    1.600477|
|         291|  7.3125e-01|  1.7712e-09|  3.4748e-02|  1.0000e-02|  1.0000e-02|  1.0000e-02|   -4.658244|   -4.947871|   -5.809174|   -5.808935|   -4.910581|  -12.830412|    1.604942|
|         292|  7.3090e-01|  1.7683e-09|  3.4748e-02|  1.0000e-02|  1.0000e-02|  1.0000e-02|   -4.658083|   -4.948344|   -5.808925|   -5.808687|   -4.910372|  -12.830863|    1.609408|
|         293|  7.3062e-01|  1.7654e-09|  3.4748e-02|  1.0000e-02|  1.0000e-02|  1.0000e-02|   -4.657922|   -4.948815|   -5.808675|   -5.808437|   -4.910164|  -12.831312|    1.613876|
|         294|  7.3029e-01|  1.7624e-09|  3.4748e-02|  1.0000e-02|  1.0000e-02|  1.0000e-02|   -4.657761|   -4.949283|   -5.808425|   -5.808187|   -4.909955|  -12.831758|    1.618346|
|         295|  7.2999e-01|  1.7595e-09|  3.4748e-02|  1.0000e-02|  1.0000e-02|  1.0000e-02|   -4.657599|   -4.949747|   -5.808173|   -5.807936|   -4.909746|  -12.832203|    1.622819|
|         296|  7.2966e-01|  1.7566e-09|  3.4748e-02|  1.0000e-02|  1.0000e-02|  1.0000e-02|   -4.657438|   -4.950208|   -5.807921|   -5.807684|   -4.909538|  -12.832646|    1.627293|
|         297|  7.2932e-01|  1.7538e-09|  3.4748e-02|  1.0000e-02|  1.0000e-02|  1.0000e-02|   -4.657277|   -4.950667|   -5.807668|   -5.807431|   -4.909329|  -12.833086|    1.631769|
|         298|  7.2901e-01|  1.7509e-09|  3.4748e-02|  1.0000e-02|  1.0000e-02|  1.0000e-02|   -4.657115|   -4.951121|   -5.807414|   -5.807178|   -4.909120|  -12.833525|    1.636247|
|         299|  7.2867e-01|  1.7481e-09|  3.4748e-02|  1.0000e-02|  1.0000e-02|  1.0000e-02|   -4.656954|   -4.951573|   -5.807159|   -5.806923|   -4.908911|  -12.833962|    1.640726|
|         300|  7.2836e-01|  1.7452e-09|  3.4748e-02|  1.0000e-02|  1.0000e-02|  1.0000e-02|   -4.656792|   -4.952022|   -5.806904|   -5.806668|   -4.908701|  -12.834396|    1.645208|
+-----------------------------------------------------------------------+
|        File Writing Summary       |              Filename             |
+-----------------------------------------------------------------------+
|SU2 binary restart                 |restart_flow.dat                   |
|Paraview                           |flow.vtu                           |
|Paraview surface                   |surface_flow.vtu                   |
+-----------------------------------------------------------------------+
+-------------------------------------------------------------------------------------------------------------------------------------------------------------------------------------+
|  Inner_Iter|   Time(sec)|      Min DT|      Max DT|     Min CFL|     Max CFL|     Avg CFL|    rms[Rho]|   rms[RhoU]|   rms[RhoV]|   rms[RhoW]|   rms[RhoE]|     rms[nu]|          CD|
+-------------------------------------------------------------------------------------------------------------------------------------------------------------------------------------+
|         301|  7.7165e-01|  1.7424e-09|  3.4748e-02|  1.0000e-02|  1.0000e-02|  1.0000e-02|   -4.656631|   -4.952468|   -5.806647|   -5.806412|   -4.908492|  -12.834829|    1.649692|
|         302|  7.7134e-01|  1.7396e-09|  3.4748e-02|  1.0000e-02|  1.0000e-02|  1.0000e-02|   -4.656469|   -4.952913|   -5.806390|   -5.806155|   -4.908283|  -12.835259|    1.654178|
|         303|  7.7101e-01|  1.7368e-09|  3.4748e-02|  1.0000e-02|  1.0000e-02|  1.0000e-02|   -4.656309|   -4.953357|   -5.806132|   -5.805897|   -4.908075|  -12.835688|    1.658665|
|         304|  7.7068e-01|  1.7340e-09|  3.4748e-02|  1.0000e-02|  1.0000e-02|  1.0000e-02|   -4.656148|   -4.953798|   -5.805873|   -5.805639|   -4.907867|  -12.836115|    1.663155|
|         305|  7.7035e-01|  1.7312e-09|  3.4748e-02|  1.0000e-02|  1.0000e-02|  1.0000e-02|   -4.655987|   -4.954238|   -5.805613|   -5.805379|   -4.907659|  -12.836540|    1.667647|
|         306|  7.7005e-01|  1.7284e-09|  3.4748e-02|  1.0000e-02|  1.0000e-02|  1.0000e-02|   -4.655827|   -4.954674|   -5.805353|   -5.805119|   -4.907451|  -12.836963|    1.672140|
|         307|  7.6969e-01|  1.7257e-09|  3.4748e-02|  1.0000e-02|  1.0000e-02|  1.0000e-02|   -4.655666|   -4.955108|   -5.805091|   -5.804858|   -4.907242|  -12.837385|    1.676636|
|         308|  7.6938e-01|  1.7229e-09|  3.4748e-02|  1.0000e-02|  1.0000e-02|  1.0000e-02|   -4.655506|   -4.955538|   -5.804829|   -5.804597|   -4.907034|  -12.837805|    1.681133|
|         309|  7.6906e-01|  1.7202e-09|  3.4748e-02|  1.0000e-02|  1.0000e-02|  1.0000e-02|   -4.655345|   -4.955964|   -5.804567|   -5.804334|   -4.906826|  -12.838224|    1.685633|
|         310|  7.6868e-01|  1.7175e-09|  3.4748e-02|  1.0000e-02|  1.0000e-02|  1.0000e-02|   -4.655185|   -4.956387|   -5.804303|   -5.804071|   -4.906618|  -12.838643|    1.690134|
|         311|  7.6842e-01|  1.7148e-09|  3.4748e-02|  1.0000e-02|  1.0000e-02|  1.0000e-02|   -4.655024|   -4.956806|   -5.804039|   -5.803808|   -4.906409|  -12.839062|    1.694638|
|         312|  7.6808e-01|  1.7121e-09|  3.4748e-02|  1.0000e-02|  1.0000e-02|  1.0000e-02|   -4.654864|   -4.957221|   -5.803774|   -5.803543|   -4.906201|  -12.839482|    1.699143|
|         313|  7.6773e-01|  1.7094e-09|  3.4748e-02|  1.0000e-02|  1.0000e-02|  1.0000e-02|   -4.654703|   -4.957633|   -5.803509|   -5.803278|   -4.905992|  -12.839904|    1.703651|
|         314|  7.6732e-01|  1.7067e-09|  3.4748e-02|  1.0000e-02|  1.0000e-02|  1.0000e-02|   -4.654542|   -4.958042|   -5.803242|   -5.803012|   -4.905784|  -12.840327|    1.708160|
|         315|  7.6705e-01|  1.7040e-09|  3.4748e-02|  1.0000e-02|  1.0000e-02|  1.0000e-02|   -4.654382|   -4.958446|   -5.802975|   -5.802746|   -4.905575|  -12.840754|    1.712671|
|         316|  7.6667e-01|  1.7014e-09|  3.4748e-02|  1.0000e-02|  1.0000e-02|  1.0000e-02|   -4.654221|   -4.958847|   -5.802708|   -5.802478|   -4.905366|  -12.841184|    1.717185|
|         317|  7.6627e-01|  1.6987e-09|  3.4748e-02|  1.0000e-02|  1.0000e-02|  1.0000e-02|   -4.654060|   -4.959244|   -5.802439|   -5.802210|   -4.905157|  -12.841617|    1.721700|
|         318|  7.6587e-01|  1.6961e-09|  3.4748e-02|  1.0000e-02|  1.0000e-02|  1.0000e-02|   -4.653899|   -4.959638|   -5.802170|   -5.801942|   -4.904948|  -12.842052|    1.726217|
|         319|  7.6554e-01|  1.6935e-09|  3.4748e-02|  1.0000e-02|  1.0000e-02|  1.0000e-02|   -4.653738|   -4.960027|   -5.801900|   -5.801672|   -4.904740|  -12.842487|    1.730736|
|         320|  7.6519e-01|  1.6909e-09|  3.4748e-02|  1.0000e-02|  1.0000e-02|  1.0000e-02|   -4.653578|   -4.960413|   -5.801630|   -5.801402|   -4.904531|  -12.842921|    1.735258|
|         321|  7.6479e-01|  1.6883e-09|  3.4748e-02|  1.0000e-02|  1.0000e-02|  1.0000e-02|   -4.653417|   -4.960795|   -5.801359|   -5.801132|   -4.904321|  -12.843353|    1.739781|
|         322|  7.6439e-01|  1.6857e-09|  3.4748e-02|  1.0000e-02|  1.0000e-02|  1.0000e-02|   -4.653256|   -4.961173|   -5.801087|   -5.800861|   -4.904112|  -12.843782|    1.744306|
|         323|  7.6401e-01|  1.6831e-09|  3.4748e-02|  1.0000e-02|  1.0000e-02|  1.0000e-02|   -4.653095|   -4.961548|   -5.800814|   -5.800589|   -4.903903|  -12.844207|    1.748833|
|         324|  7.6364e-01|  1.6806e-09|  3.4748e-02|  1.0000e-02|  1.0000e-02|  1.0000e-02|   -4.652934|   -4.961920|   -5.800541|   -5.800316|   -4.903694|  -12.844628|    1.753362|
|         325|  7.6333e-01|  1.6780e-09|  3.4748e-02|  1.0000e-02|  1.0000e-02|  1.0000e-02|   -4.652774|   -4.962288|   -5.800267|   -5.800043|   -4.903486|  -12.845046|    1.757893|
|         326|  7.6300e-01|  1.6755e-09|  3.4748e-02|  1.0000e-02|  1.0000e-02|  1.0000e-02|   -4.652613|   -4.962653|   -5.799993|   -5.799769|   -4.903277|  -12.845459|    1.762426|
|         327|  7.6263e-01|  1.6730e-09|  3.4748e-02|  1.0000e-02|  1.0000e-02|  1.0000e-02|   -4.652453|   -4.963015|   -5.799717|   -5.799494|   -4.903068|  -12.845869|    1.766961|
|         328|  7.6226e-01|  1.6704e-09|  3.4748e-02|  1.0000e-02|  1.0000e-02|  1.0000e-02|   -4.652293|   -4.963372|   -5.799441|   -5.799218|   -4.902860|  -12.846275|    1.771498|
|         329|  7.6193e-01|  1.6679e-09|  3.4748e-02|  1.0000e-02|  1.0000e-02|  1.0000e-02|   -4.652132|   -4.963726|   -5.799165|   -5.798942|   -4.902651|  -12.846677|    1.776036|
|         330|  7.6157e-01|  1.6654e-09|  3.4748e-02|  1.0000e-02|  1.0000e-02|  1.0000e-02|   -4.651972|   -4.964076|   -5.798888|   -5.798666|   -4.902442|  -12.847076|    1.780577|
|         331|  7.6123e-01|  1.6630e-09|  3.4748e-02|  1.0000e-02|  1.0000e-02|  1.0000e-02|   -4.651812|   -4.964421|   -5.798610|   -5.798388|   -4.902234|  -12.847473|    1.785120|
|         332|  7.6084e-01|  1.6605e-09|  3.4748e-02|  1.0000e-02|  1.0000e-02|  1.0000e-02|   -4.651651|   -4.964763|   -5.798331|   -5.798110|   -4.902025|  -12.847866|    1.789665|
|         333|  7.6045e-01|  1.6580e-09|  3.4748e-02|  1.0000e-02|  1.0000e-02|  1.0000e-02|   -4.651491|   -4.965100|   -5.798052|   -5.797831|   -4.901816|  -12.848256|    1.794212|
|         334|  7.6010e-01|  1.6556e-09|  3.4748e-02|  1.0000e-02|  1.0000e-02|  1.0000e-02|   -4.651331|   -4.965433|   -5.797772|   -5.797552|   -4.901607|  -12.848644|    1.798760|
|         335|  7.5972e-01|  1.6531e-09|  3.4748e-02|  1.0000e-02|  1.0000e-02|  1.0000e-02|   -4.651170|   -4.965762|   -5.797492|   -5.797272|   -4.901398|  -12.849029|    1.803311|
|         336|  7.5939e-01|  1.6507e-09|  3.4748e-02|  1.0000e-02|  1.0000e-02|  1.0000e-02|   -4.651010|   -4.966087|   -5.797211|   -5.796992|   -4.901189|  -12.849412|    1.807863|
|         337|  7.5905e-01|  1.6483e-09|  3.4748e-02|  1.0000e-02|  1.0000e-02|  1.0000e-02|   -4.650850|   -4.966408|   -5.796929|   -5.796710|   -4.900981|  -12.849793|    1.812418|
|         338|  7.5868e-01|  1.6459e-09|  3.4748e-02|  1.0000e-02|  1.0000e-02|  1.0000e-02|   -4.650689|   -4.966725|   -5.796647|   -5.796429|   -4.900772|  -12.850171|    1.816975|
|         339|  7.5838e-01|  1.6435e-09|  3.4748e-02|  1.0000e-02|  1.0000e-02|  1.0000e-02|   -4.650529|   -4.967037|   -5.796364|   -5.796146|   -4.900563|  -12.850547|    1.821533|
|         340|  7.5801e-01|  1.6411e-09|  3.4748e-02|  1.0000e-02|  1.0000e-02|  1.0000e-02|   -4.650369|   -4.967345|   -5.796080|   -5.795863|   -4.900354|  -12.850922|    1.826093|
|         341|  7.5775e-01|  1.6387e-09|  3.4748e-02|  1.0000e-02|  1.0000e-02|  1.0000e-02|   -4.650209|   -4.967649|   -5.795796|   -5.795579|   -4.900145|  -12.851294|    1.830656|
|         342|  7.5741e-01|  1.6364e-09|  3.4748e-02|  1.0000e-02|  1.0000e-02|  1.0000e-02|   -4.650049|   -4.967949|   -5.795511|   -5.795295|   -4.899936|  -12.851664|    1.835220|
|         343|  7.5705e-01|  1.6340e-09|  3.4748e-02|  1.0000e-02|  1.0000e-02|  1.0000e-02|   -4.649889|   -4.968245|   -5.795226|   -5.795010|   -4.899727|  -12.852032|    1.839786|
|         344|  7.5671e-01|  1.6317e-09|  3.4748e-02|  1.0000e-02|  1.0000e-02|  1.0000e-02|   -4.649729|   -4.968536|   -5.794940|   -5.794724|   -4.899518|  -12.852398|    1.844354|
|         345|  7.5638e-01|  1.6293e-09|  3.4748e-02|  1.0000e-02|  1.0000e-02|  1.0000e-02|   -4.649569|   -4.968823|   -5.794653|   -5.794438|   -4.899310|  -12.852762|    1.848925|
|         346|  7.5604e-01|  1.6270e-09|  3.4748e-02|  1.0000e-02|  1.0000e-02|  1.0000e-02|   -4.649409|   -4.969106|   -5.794366|   -5.794151|   -4.899101|  -12.853125|    1.853497|
|         347|  7.5568e-01|  1.6247e-09|  3.4748e-02|  1.0000e-02|  1.0000e-02|  1.0000e-02|   -4.649249|   -4.969385|   -5.794078|   -5.793863|   -4.898892|  -12.853486|    1.858071|
|         348|  7.5534e-01|  1.6224e-09|  3.4748e-02|  1.0000e-02|  1.0000e-02|  1.0000e-02|   -4.649089|   -4.969659|   -5.793789|   -5.793575|   -4.898683|  -12.853845|    1.862647|
|         349|  7.5501e-01|  1.6201e-09|  3.4748e-02|  1.0000e-02|  1.0000e-02|  1.0000e-02|   -4.648929|   -4.969929|   -5.793500|   -5.793286|   -4.898475|  -12.854202|    1.867224|
|         350|  7.5467e-01|  1.6179e-09|  3.4748e-02|  1.0000e-02|  1.0000e-02|  1.0000e-02|   -4.648770|   -4.970195|   -5.793210|   -5.792997|   -4.898266|  -12.854557|    1.871804|
[...]
|        3322|  7.3384e-01|  7.9562e-10|  3.4748e-02|  1.0000e-02|  1.0000e-02|  1.0000e-02|   -4.435477|   -4.728682|   -5.025299|   -5.025241|   -4.625554|  -12.470440|    3.839826|
|        3323|  7.3384e-01|  7.9552e-10|  3.4748e-02|  1.0000e-02|  1.0000e-02|  1.0000e-02|   -4.435475|   -4.728802|   -5.025218|   -5.025160|   -4.625327|  -12.470114|    3.843330|
|        3324|  7.3384e-01|  7.9542e-10|  3.4748e-02|  1.0000e-02|  1.0000e-02|  1.0000e-02|   -4.435470|   -4.728921|   -5.025136|   -5.025078|   -4.625095|  -12.469794|    3.846826|
|        3325|  7.3382e-01|  7.9532e-10|  3.4748e-02|  1.0000e-02|  1.0000e-02|  1.0000e-02|   -4.435462|   -4.729039|   -5.025052|   -5.024994|   -4.624859|  -12.469479|    3.850314|
|        3326|  7.3379e-01|  7.9521e-10|  3.4748e-02|  1.0000e-02|  1.0000e-02|  1.0000e-02|   -4.435450|   -4.729157|   -5.024967|   -5.024909|   -4.624619|  -12.469170|    3.853795|
|        3327|  7.3377e-01|  7.9511e-10|  3.4748e-02|  1.0000e-02|  1.0000e-02|  1.0000e-02|   -4.435435|   -4.729273|   -5.024880|   -5.024823|   -4.624375|  -12.468866|    3.857267|
|        3328|  7.3374e-01|  7.9501e-10|  3.4748e-02|  1.0000e-02|  1.0000e-02|  1.0000e-02|   -4.435417|   -4.729390|   -5.024792|   -5.024735|   -4.624127|  -12.468568|    3.860732|
|        3329|  7.3371e-01|  7.9491e-10|  3.4748e-02|  1.0000e-02|  1.0000e-02|  1.0000e-02|   -4.435395|   -4.729505|   -5.024703|   -5.024645|   -4.623876|  -12.468275|    3.864190|
|        3330|  7.3369e-01|  7.9481e-10|  3.4748e-02|  1.0000e-02|  1.0000e-02|  1.0000e-02|   -4.435371|   -4.729620|   -5.024612|   -5.024555|   -4.623620|  -12.467988|    3.867639|
|        3331|  7.3367e-01|  7.9471e-10|  3.4748e-02|  1.0000e-02|  1.0000e-02|  1.0000e-02|   -4.435343|   -4.729734|   -5.024520|   -5.024463|   -4.623361|  -12.467707|    3.871080|
|        3332|  7.3366e-01|  7.9461e-10|  3.4748e-02|  1.0000e-02|  1.0000e-02|  1.0000e-02|   -4.435313|   -4.729847|   -5.024426|   -5.024369|   -4.623099|  -12.467431|    3.874514|
|        3333|  7.3365e-01|  7.9451e-10|  3.4748e-02|  1.0000e-02|  1.0000e-02|  1.0000e-02|   -4.435279|   -4.729960|   -5.024332|   -5.024275|   -4.622833|  -12.467161|    3.877939|
|        3334|  7.3363e-01|  7.9441e-10|  3.4748e-02|  1.0000e-02|  1.0000e-02|  1.0000e-02|   -4.435242|   -4.730071|   -5.024236|   -5.024179|   -4.622564|  -12.466896|    3.881357|
|        3335|  7.3361e-01|  7.9431e-10|  3.4748e-02|  1.0000e-02|  1.0000e-02|  1.0000e-02|   -4.435203|   -4.730182|   -5.024139|   -5.024082|   -4.622291|  -12.466638|    3.884766|
|        3336|  7.3361e-01|  7.9421e-10|  3.4748e-02|  1.0000e-02|  1.0000e-02|  1.0000e-02|   -4.435160|   -4.730292|   -5.024041|   -5.023984|   -4.622016|  -12.466386|    3.888168|
|        3337|  7.3358e-01|  7.9411e-10|  3.4748e-02|  1.0000e-02|  1.0000e-02|  1.0000e-02|   -4.435115|   -4.730401|   -5.023941|   -5.023885|   -4.621737|  -12.466141|    3.891561|
|        3338|  7.3356e-01|  7.9401e-10|  3.4748e-02|  1.0000e-02|  1.0000e-02|  1.0000e-02|   -4.435067|   -4.730510|   -5.023841|   -5.023785|   -4.621456|  -12.465903|    3.894947|
|        3339|  7.3353e-01|  7.9391e-10|  3.4748e-02|  1.0000e-02|  1.0000e-02|  1.0000e-02|   -4.435017|   -4.730617|   -5.023740|   -5.023684|   -4.621173|  -12.465671|    3.898324|
|        3340|  7.3350e-01|  7.9381e-10|  3.4748e-02|  1.0000e-02|  1.0000e-02|  1.0000e-02|   -4.434964|   -4.730724|   -5.023638|   -5.023582|   -4.620886|  -12.465446|    3.901693|
|        3341|  7.3347e-01|  7.9372e-10|  3.4748e-02|  1.0000e-02|  1.0000e-02|  1.0000e-02|   -4.434908|   -4.730830|   -5.023535|   -5.023480|   -4.620598|  -12.465227|    3.905053|
|        3342|  7.3345e-01|  7.9362e-10|  3.4748e-02|  1.0000e-02|  1.0000e-02|  1.0000e-02|   -4.434850|   -4.730935|   -5.023431|   -5.023376|   -4.620307|  -12.465015|    3.908406|
|        3343|  7.3342e-01|  7.9352e-10|  3.4748e-02|  1.0000e-02|  1.0000e-02|  1.0000e-02|   -4.434789|   -4.731039|   -5.023326|   -5.023271|   -4.620013|  -12.464809|    3.911750|
|        3344|  7.3339e-01|  7.9342e-10|  3.4748e-02|  1.0000e-02|  1.0000e-02|  1.0000e-02|   -4.434725|   -4.731142|   -5.023221|   -5.023166|   -4.619717|  -12.464610|    3.915086|
|        3345|  7.3338e-01|  7.9332e-10|  3.4748e-02|  1.0000e-02|  1.0000e-02|  1.0000e-02|   -4.434660|   -4.731244|   -5.023114|   -5.023060|   -4.619419|  -12.464417|    3.918413|
|        3346|  7.3335e-01|  7.9322e-10|  3.4748e-02|  1.0000e-02|  1.0000e-02|  1.0000e-02|   -4.434591|   -4.731345|   -5.023007|   -5.022953|   -4.619119|  -12.464230|    3.921733|
|        3347|  7.3332e-01|  7.9312e-10|  3.4748e-02|  1.0000e-02|  1.0000e-02|  1.0000e-02|   -4.434521|   -4.731446|   -5.022899|   -5.022845|   -4.618817|  -12.464050|    3.925044|
|        3348|  7.3330e-01|  7.9302e-10|  3.4748e-02|  1.0000e-02|  1.0000e-02|  1.0000e-02|   -4.434448|   -4.731545|   -5.022791|   -5.022737|   -4.618513|  -12.463876|    3.928346|
|        3349|  7.3328e-01|  7.9292e-10|  3.4748e-02|  1.0000e-02|  1.0000e-02|  1.0000e-02|   -4.434372|   -4.731643|   -5.022682|   -5.022628|   -4.618207|  -12.463708|    3.931640|
|        3350|  7.3326e-01|  7.9282e-10|  3.4748e-02|  1.0000e-02|  1.0000e-02|  1.0000e-02|   -4.434295|   -4.731741|   -5.022572|   -5.022519|   -4.617899|  -12.463547|    3.934925|
|        3351|  7.3323e-01|  7.9272e-10|  3.4748e-02|  1.0000e-02|  1.0000e-02|  1.0000e-02|   -4.434215|   -4.731837|   -5.022462|   -5.022409|   -4.617590|  -12.463392|    3.938202|
|        3352|  7.3321e-01|  7.9262e-10|  3.4748e-02|  1.0000e-02|  1.0000e-02|  1.0000e-02|   -4.434133|   -4.731933|   -5.022351|   -5.022298|   -4.617279|  -12.463243|    3.941470|
|        3353|  7.3319e-01|  7.9252e-10|  3.4748e-02|  1.0000e-02|  1.0000e-02|  1.0000e-02|   -4.434049|   -4.732027|   -5.022240|   -5.022188|   -4.616966|  -12.463100|    3.944730|
|        3354|  7.3316e-01|  7.9242e-10|  3.4748e-02|  1.0000e-02|  1.0000e-02|  1.0000e-02|   -4.433963|   -4.732121|   -5.022129|   -5.022076|   -4.616652|  -12.462963|    3.947981|
|        3355|  7.3313e-01|  7.9232e-10|  3.4748e-02|  1.0000e-02|  1.0000e-02|  1.0000e-02|   -4.433875|   -4.732213|   -5.022017|   -5.021964|   -4.616337|  -12.462833|    3.951224|
|        3356|  7.3310e-01|  7.9222e-10|  3.4748e-02|  1.0000e-02|  1.0000e-02|  1.0000e-02|   -4.433785|   -4.732305|   -5.021904|   -5.021852|   -4.616020|  -12.462708|    3.954458|
|        3357|  7.3308e-01|  7.9212e-10|  3.4748e-02|  1.0000e-02|  1.0000e-02|  1.0000e-02|   -4.433693|   -4.732396|   -5.021792|   -5.021740|   -4.615703|  -12.462590|    3.957683|
|        3358|  7.3306e-01|  7.9203e-10|  3.4748e-02|  1.0000e-02|  1.0000e-02|  1.0000e-02|   -4.433599|   -4.732485|   -5.021679|   -5.021627|   -4.615384|  -12.462477|    3.960899|
|        3359|  7.3303e-01|  7.9193e-10|  3.4748e-02|  1.0000e-02|  1.0000e-02|  1.0000e-02|   -4.433503|   -4.732574|   -5.021566|   -5.021515|   -4.615064|  -12.462371|    3.964107|
|        3360|  7.3301e-01|  7.9183e-10|  3.4748e-02|  1.0000e-02|  1.0000e-02|  1.0000e-02|   -4.433405|   -4.732662|   -5.021452|   -5.021401|   -4.614743|  -12.462271|    3.967306|
|        3361|  7.3299e-01|  7.9173e-10|  3.4748e-02|  1.0000e-02|  1.0000e-02|  1.0000e-02|   -4.433306|   -4.732749|   -5.021339|   -5.021288|   -4.614421|  -12.462176|    3.970496|
|        3362|  7.3296e-01|  7.9163e-10|  3.4748e-02|  1.0000e-02|  1.0000e-02|  1.0000e-02|   -4.433204|   -4.732835|   -5.021225|   -5.021175|   -4.614098|  -12.462087|    3.973677|
|        3363|  7.3294e-01|  7.9153e-10|  3.4748e-02|  1.0000e-02|  1.0000e-02|  1.0000e-02|   -4.433101|   -4.732920|   -5.021111|   -5.021061|   -4.613775|  -12.462003|    3.976849|
|        3364|  7.3291e-01|  7.9143e-10|  3.4748e-02|  1.0000e-02|  1.0000e-02|  1.0000e-02|   -4.432997|   -4.733003|   -5.020997|   -5.020947|   -4.613451|  -12.461926|    3.980012|
|        3365|  7.3288e-01|  7.9133e-10|  3.4748e-02|  1.0000e-02|  1.0000e-02|  1.0000e-02|   -4.432891|   -4.733086|   -5.020883|   -5.020833|   -4.613126|  -12.461854|    3.983167|
|        3366|  7.3286e-01|  7.9123e-10|  3.4748e-02|  1.0000e-02|  1.0000e-02|  1.0000e-02|   -4.432783|   -4.733168|   -5.020769|   -5.020719|   -4.612801|  -12.461787|    3.986312|
|        3367|  7.3284e-01|  7.9114e-10|  3.4748e-02|  1.0000e-02|  1.0000e-02|  1.0000e-02|   -4.432673|   -4.733249|   -5.020654|   -5.020606|   -4.612476|  -12.461727|    3.989449|
|        3368|  7.3281e-01|  7.9104e-10|  3.4748e-02|  1.0000e-02|  1.0000e-02|  1.0000e-02|   -4.432563|   -4.733329|   -5.020540|   -5.020492|   -4.612150|  -12.461672|    3.992576|
|        3369|  7.3278e-01|  7.9094e-10|  3.4748e-02|  1.0000e-02|  1.0000e-02|  1.0000e-02|   -4.432450|   -4.733408|   -5.020426|   -5.020378|   -4.611823|  -12.461622|    3.995695|
|        3370|  7.3276e-01|  7.9084e-10|  3.4748e-02|  1.0000e-02|  1.0000e-02|  1.0000e-02|   -4.432337|   -4.733486|   -5.020313|   -5.020265|   -4.611497|  -12.461578|    3.998804|
|        3371|  7.3273e-01|  7.9074e-10|  3.4748e-02|  1.0000e-02|  1.0000e-02|  1.0000e-02|   -4.432222|   -4.733562|   -5.020199|   -5.020151|   -4.611170|  -12.461539|    4.001904|
|        3372|  7.3270e-01|  7.9064e-10|  3.4748e-02|  1.0000e-02|  1.0000e-02|  1.0000e-02|   -4.432105|   -4.733638|   -5.020085|   -5.020038|   -4.610843|  -12.461504|    4.004995|
|        3373|  7.3267e-01|  7.9054e-10|  3.4748e-02|  1.0000e-02|  1.0000e-02|  1.0000e-02|   -4.431988|   -4.733713|   -5.019972|   -5.019925|   -4.610516|  -12.461475|    4.008077|
|        3374|  7.3264e-01|  7.9045e-10|  3.4748e-02|  1.0000e-02|  1.0000e-02|  1.0000e-02|   -4.431869|   -4.733786|   -5.019859|   -5.019812|   -4.610189|  -12.461450|    4.011150|
|        3375|  7.3262e-01|  7.9035e-10|  3.4748e-02|  1.0000e-02|  1.0000e-02|  1.0000e-02|   -4.431749|   -4.733859|   -5.019746|   -5.019699|   -4.609862|  -12.461430|    4.014213|
|        3376|  7.3259e-01|  7.9025e-10|  3.4748e-02|  1.0000e-02|  1.0000e-02|  1.0000e-02|   -4.431628|   -4.733931|   -5.019633|   -5.019587|   -4.609536|  -12.461415|    4.017267|
|        3377|  7.3257e-01|  7.9015e-10|  3.4748e-02|  1.0000e-02|  1.0000e-02|  1.0000e-02|   -4.431506|   -4.734001|   -5.019521|   -5.019475|   -4.609209|  -12.461405|    4.020312|
|        3378|  7.3254e-01|  7.9005e-10|  3.4748e-02|  1.0000e-02|  1.0000e-02|  1.0000e-02|   -4.431382|   -4.734070|   -5.019409|   -5.019363|   -4.608883|  -12.461399|    4.023348|
|        3379|  7.3251e-01|  7.8995e-10|  3.4748e-02|  1.0000e-02|  1.0000e-02|  1.0000e-02|   -4.431258|   -4.734139|   -5.019298|   -5.019252|   -4.608557|  -12.461398|    4.026374|
|        3380|  7.3248e-01|  7.8986e-10|  3.4748e-02|  1.0000e-02|  1.0000e-02|  1.0000e-02|   -4.431133|   -4.734206|   -5.019187|   -5.019141|   -4.608232|  -12.461401|    4.029391|
|        3381|  7.3246e-01|  7.8976e-10|  3.4748e-02|  1.0000e-02|  1.0000e-02|  1.0000e-02|   -4.431007|   -4.734272|   -5.019076|   -5.019030|   -4.607907|  -12.461409|    4.032399|
|        3382|  7.3243e-01|  7.8966e-10|  3.4748e-02|  1.0000e-02|  1.0000e-02|  1.0000e-02|   -4.430880|   -4.734337|   -5.018966|   -5.018920|   -4.607582|  -12.461421|    4.035397|
|        3383|  7.3240e-01|  7.8956e-10|  3.4748e-02|  1.0000e-02|  1.0000e-02|  1.0000e-02|   -4.430752|   -4.734401|   -5.018856|   -5.018811|   -4.607258|  -12.461437|    4.038385|
|        3384|  7.3238e-01|  7.8946e-10|  3.4748e-02|  1.0000e-02|  1.0000e-02|  1.0000e-02|   -4.430624|   -4.734464|   -5.018747|   -5.018702|   -4.606935|  -12.461458|    4.041365|
|        3385|  7.3235e-01|  7.8936e-10|  3.4748e-02|  1.0000e-02|  1.0000e-02|  1.0000e-02|   -4.430494|   -4.734525|   -5.018639|   -5.018594|   -4.606613|  -12.461483|    4.044334|
|        3386|  7.3232e-01|  7.8927e-10|  3.4748e-02|  1.0000e-02|  1.0000e-02|  1.0000e-02|   -4.430364|   -4.734586|   -5.018531|   -5.018486|   -4.606291|  -12.461513|    4.047295|
|        3387|  7.3229e-01|  7.8917e-10|  3.4748e-02|  1.0000e-02|  1.0000e-02|  1.0000e-02|   -4.430234|   -4.734645|   -5.018424|   -5.018379|   -4.605970|  -12.461546|    4.050245|
|        3388|  7.3226e-01|  7.8907e-10|  3.4748e-02|  1.0000e-02|  1.0000e-02|  1.0000e-02|   -4.430102|   -4.734703|   -5.018318|   -5.018273|   -4.605650|  -12.461584|    4.053186|
|        3389|  7.3224e-01|  7.8897e-10|  3.4748e-02|  1.0000e-02|  1.0000e-02|  1.0000e-02|   -4.429971|   -4.734760|   -5.018212|   -5.018167|   -4.605331|  -12.461626|    4.056118|
|        3390|  7.3221e-01|  7.8887e-10|  3.4748e-02|  1.0000e-02|  1.0000e-02|  1.0000e-02|   -4.429838|   -4.734816|   -5.018107|   -5.018063|   -4.605013|  -12.461672|    4.059039|
|        3391|  7.3218e-01|  7.8878e-10|  3.4748e-02|  1.0000e-02|  1.0000e-02|  1.0000e-02|   -4.429705|   -4.734870|   -5.018003|   -5.017959|   -4.604696|  -12.461722|    4.061952|
|        3392|  7.3215e-01|  7.8868e-10|  3.4748e-02|  1.0000e-02|  1.0000e-02|  1.0000e-02|   -4.429572|   -4.734924|   -5.017900|   -5.017855|   -4.604380|  -12.461776|    4.064854|
|        3393|  7.3212e-01|  7.8858e-10|  3.4748e-02|  1.0000e-02|  1.0000e-02|  1.0000e-02|   -4.429439|   -4.734976|   -5.017797|   -5.017753|   -4.604066|  -12.461835|    4.067747|
|        3394|  7.3210e-01|  7.8848e-10|  3.4748e-02|  1.0000e-02|  1.0000e-02|  1.0000e-02|   -4.429305|   -4.735027|   -5.017696|   -5.017652|   -4.603753|  -12.461897|    4.070630|
|        3395|  7.3207e-01|  7.8839e-10|  3.4748e-02|  1.0000e-02|  1.0000e-02|  1.0000e-02|   -4.429171|   -4.735076|   -5.017595|   -5.017551|   -4.603441|  -12.461963|    4.073503|
|        3396|  7.3204e-01|  7.8829e-10|  3.4748e-02|  1.0000e-02|  1.0000e-02|  1.0000e-02|   -4.429036|   -4.735125|   -5.017496|   -5.017452|   -4.603131|  -12.462033|    4.076367|
|        3397|  7.3201e-01|  7.8819e-10|  3.4748e-02|  1.0000e-02|  1.0000e-02|  1.0000e-02|   -4.428901|   -4.735173|   -5.017397|   -5.017354|   -4.602822|  -12.462107|    4.079220|
|        3398|  7.3198e-01|  7.8809e-10|  3.4748e-02|  1.0000e-02|  1.0000e-02|  1.0000e-02|   -4.428767|   -4.735219|   -5.017300|   -5.017256|   -4.602514|  -12.462185|    4.082064|
|        3399|  7.3196e-01|  7.8800e-10|  3.4748e-02|  1.0000e-02|  1.0000e-02|  1.0000e-02|   -4.428632|   -4.735264|   -5.017203|   -5.017160|   -4.602208|  -12.462266|    4.084898|
|        3400|  7.3193e-01|  7.8790e-10|  3.4748e-02|  1.0000e-02|  1.0000e-02|  1.0000e-02|   -4.428497|   -4.735308|   -5.017108|   -5.017065|   -4.601904|  -12.462352|    4.087722|
|        3401|  7.3190e-01|  7.8780e-10|  3.4748e-02|  1.0000e-02|  1.0000e-02|  1.0000e-02|   -4.428362|   -4.735351|   -5.017014|   -5.016971|   -4.601602|  -12.462441|    4.090536|
|        3402|  7.3187e-01|  7.8770e-10|  3.4748e-02|  1.0000e-02|  1.0000e-02|  1.0000e-02|   -4.428227|   -4.735393|   -5.016921|   -5.016878|   -4.601301|  -12.462534|    4.093341|
|        3403|  7.3184e-01|  7.8761e-10|  3.4748e-02|  1.0000e-02|  1.0000e-02|  1.0000e-02|   -4.428092|   -4.735434|   -5.016829|   -5.016787|   -4.601002|  -12.462631|    4.096135|
|        3404|  7.3181e-01|  7.8751e-10|  3.4748e-02|  1.0000e-02|  1.0000e-02|  1.0000e-02|   -4.427957|   -4.735474|   -5.016739|   -5.016696|   -4.600705|  -12.462732|    4.098919|
|        3405|  7.3179e-01|  7.8741e-10|  3.4748e-02|  1.0000e-02|  1.0000e-02|  1.0000e-02|   -4.427823|   -4.735512|   -5.016650|   -5.016607|   -4.600410|  -12.462837|    4.101693|
|        3406|  7.3176e-01|  7.8731e-10|  3.4748e-02|  1.0000e-02|  1.0000e-02|  1.0000e-02|   -4.427688|   -4.735550|   -5.016562|   -5.016519|   -4.600117|  -12.462945|    4.104458|
|        3407|  7.3173e-01|  7.8722e-10|  3.4748e-02|  1.0000e-02|  1.0000e-02|  1.0000e-02|   -4.427554|   -4.735586|   -5.016475|   -5.016433|   -4.599826|  -12.463056|    4.107212|
|        3408|  7.3171e-01|  7.8712e-10|  3.4748e-02|  1.0000e-02|  1.0000e-02|  1.0000e-02|   -4.427421|   -4.735621|   -5.016390|   -5.016348|   -4.599537|  -12.463172|    4.109956|
|        3409|  7.3168e-01|  7.8702e-10|  3.4748e-02|  1.0000e-02|  1.0000e-02|  1.0000e-02|   -4.427287|   -4.735656|   -5.016306|   -5.016264|   -4.599251|  -12.463291|    4.112690|
|        3410|  7.3165e-01|  7.8692e-10|  3.4748e-02|  1.0000e-02|  1.0000e-02|  1.0000e-02|   -4.427155|   -4.735689|   -5.016223|   -5.016182|   -4.598967|  -12.463413|    4.115414|
|        3411|  7.3163e-01|  7.8683e-10|  3.4748e-02|  1.0000e-02|  1.0000e-02|  1.0000e-02|   -4.427022|   -4.735721|   -5.016142|   -5.016101|   -4.598685|  -12.463539|    4.118127|
|        3412|  7.3160e-01|  7.8673e-10|  3.4748e-02|  1.0000e-02|  1.0000e-02|  1.0000e-02|   -4.426890|   -4.735752|   -5.016063|   -5.016021|   -4.598405|  -12.463668|    4.120831|
|        3413|  7.3157e-01|  7.8663e-10|  3.4748e-02|  1.0000e-02|  1.0000e-02|  1.0000e-02|   -4.426759|   -4.735782|   -5.015984|   -5.015943|   -4.598128|  -12.463801|    4.123524|
|        3414|  7.3154e-01|  7.8654e-10|  3.4748e-02|  1.0000e-02|  1.0000e-02|  1.0000e-02|   -4.426628|   -4.735811|   -5.015908|   -5.015867|   -4.597853|  -12.463937|    4.126207|
|        3415|  7.3151e-01|  7.8644e-10|  3.4748e-02|  1.0000e-02|  1.0000e-02|  1.0000e-02|   -4.426498|   -4.735839|   -5.015832|   -5.015792|   -4.597581|  -12.464076|    4.128880|
|        3416|  7.3149e-01|  7.8634e-10|  3.4748e-02|  1.0000e-02|  1.0000e-02|  1.0000e-02|   -4.426368|   -4.735866|   -5.015759|   -5.015718|   -4.597311|  -12.464218|    4.131543|
|        3417|  7.3146e-01|  7.8625e-10|  3.4748e-02|  1.0000e-02|  1.0000e-02|  1.0000e-02|   -4.426240|   -4.735892|   -5.015687|   -5.015646|   -4.597044|  -12.464364|    4.134195|
|        3418|  7.3143e-01|  7.8615e-10|  3.4748e-02|  1.0000e-02|  1.0000e-02|  1.0000e-02|   -4.426111|   -4.735917|   -5.015616|   -5.015576|   -4.596779|  -12.464514|    4.136837|
|        3419|  7.3141e-01|  7.8605e-10|  3.4748e-02|  1.0000e-02|  1.0000e-02|  1.0000e-02|   -4.425984|   -4.735941|   -5.015547|   -5.015507|   -4.596517|  -12.464666|    4.139468|
|        3420|  7.3138e-01|  7.8595e-10|  3.4748e-02|  1.0000e-02|  1.0000e-02|  1.0000e-02|   -4.425858|   -4.735964|   -5.015480|   -5.015440|   -4.596258|  -12.464822|    4.142090|
|        3421|  7.3135e-01|  7.8586e-10|  3.4748e-02|  1.0000e-02|  1.0000e-02|  1.0000e-02|   -4.425732|   -4.735986|   -5.015415|   -5.015375|   -4.596001|  -12.464981|    4.144700|
|        3422|  7.3132e-01|  7.8576e-10|  3.4748e-02|  1.0000e-02|  1.0000e-02|  1.0000e-02|   -4.425607|   -4.736007|   -5.015351|   -5.015311|   -4.595747|  -12.465143|    4.147301|
|        3423|  7.3129e-01|  7.8566e-10|  3.4748e-02|  1.0000e-02|  1.0000e-02|  1.0000e-02|   -4.425484|   -4.736027|   -5.015289|   -5.015249|   -4.595496|  -12.465308|    4.149891|
|        3424|  7.3127e-01|  7.8557e-10|  3.4748e-02|  1.0000e-02|  1.0000e-02|  1.0000e-02|   -4.425361|   -4.736046|   -5.015229|   -5.015189|   -4.595248|  -12.465477|    4.152470|
|        3425|  7.3124e-01|  7.8547e-10|  3.4748e-02|  1.0000e-02|  1.0000e-02|  1.0000e-02|   -4.425239|   -4.736063|   -5.015170|   -5.015131|   -4.595003|  -12.465648|    4.155039|
|        3426|  7.3121e-01|  7.8537e-10|  3.4748e-02|  1.0000e-02|  1.0000e-02|  1.0000e-02|   -4.425118|   -4.736080|   -5.015113|   -5.015074|   -4.594761|  -12.465823|    4.157598|
|        3427|  7.3118e-01|  7.8528e-10|  3.4748e-02|  1.0000e-02|  1.0000e-02|  1.0000e-02|   -4.424998|   -4.736096|   -5.015058|   -5.015019|   -4.594521|  -12.466000|    4.160146|
|        3428|  7.3115e-01|  7.8518e-10|  3.4748e-02|  1.0000e-02|  1.0000e-02|  1.0000e-02|   -4.424880|   -4.736111|   -5.015005|   -5.014966|   -4.594285|  -12.466181|    4.162683|
|        3429|  7.3113e-01|  7.8509e-10|  3.4748e-02|  1.0000e-02|  1.0000e-02|  1.0000e-02|   -4.424762|   -4.736125|   -5.014954|   -5.014915|   -4.594051|  -12.466364|    4.165210|
