Nodes: tri[0608,1008]
Tasks: 128
NPN:   64

-------------------------------------------------------------------------
|    ___ _   _ ___                                                      |
|   / __| | | |_  )   Release 7.5.1 "Blackbird"                         |
|   \__ \ |_| |/ /                                                      |
|   |___/\___//___|   Suite (Computational Fluid Dynamics Code)         |
|                                                                       |
-------------------------------------------------------------------------
| SU2 Project Website: https://su2code.github.io                        |
|                                                                       |
| The SU2 Project is maintained by the SU2 Foundation                   |
| (http://su2foundation.org)                                            |
-------------------------------------------------------------------------
| Copyright 2012-2023, SU2 Contributors                                 |
|                                                                       |
| SU2 is free software; you can redistribute it and/or                  |
| modify it under the terms of the GNU Lesser General Public            |
| License as published by the Free Software Foundation; either          |
| version 2.1 of the License, or (at your option) any later version.    |
|                                                                       |
| SU2 is distributed in the hope that it will be useful,                |
| but WITHOUT ANY WARRANTY; without even the implied warranty of        |
| MERCHANTABILITY or FITNESS FOR A PARTICULAR PURPOSE. See the GNU      |
| Lesser General Public License for more details.                       |
|                                                                       |
| You should have received a copy of the GNU Lesser General Public      |
| License along with SU2. If not, see <http://www.gnu.org/licenses/>.   |
-------------------------------------------------------------------------

Parsing config file for zone 0

----------------- Physical Case Definition ( Zone 0 ) -------------------
Compressible RANS equations.
Turbulence model: Negative-Spalart-Allmaras
Hybrid RANS/LES: No Hybrid RANS/LES
Mach number: 9.
Angle of attack (AoA): 0 deg, and angle of sideslip (AoS): 0 deg.
Reynolds number: 1.02934e+09. Reference length 5.
Reading and writing binary SU2 native restart files.
Read flow solution from: restart_flow.dat.
Non-Dimensional simulation (V=1.0, Rho=1.0, T=1.0 at the farfield).
The reference area will be computed using y(2D) or z(3D) projection.
The semi-span will be computed using the max y(3D) value.
The reference length is 0.64607 m.
Reference origin for moment evaluation is (0.25, 0, 0).
Surface(s) where the force coefficients are evaluated: ORION_SURFACE.

Input mesh file name: course.su2

--------------- Space Numerical Integration ( Zone 0 ) ------------------
Jameson-Schmidt-Turkel scheme (2nd order in space) for the flow inviscid terms.
JST viscous coefficients (2nd & 4th): 0.5, 0.02.
The method includes a grid stretching correction (p = 0.3).
Scalar upwind solver for the turbulence model.
First order integration in space.
Average of gradients with correction (viscous flow terms).
Average of gradients with correction (viscous turbulence terms).
Gradient for upwind reconstruction: Green-Gauss.
Gradient for viscous and source terms: Green-Gauss.

--------------- Time Numerical Integration  ( Zone 0 ) ------------------
Local time stepping (steady state simulation).
Euler implicit method for the flow equations.
FGMRES is used for solving the linear system.
Using a ILU(0) preconditioning.
Convergence criteria of the linear solver: 1e-06.
Max number of linear iterations: 100.
No CFL adaptation.
Courant-Friedrichs-Lewy number:    0.001
Euler implicit time integration for the turbulence model.

------------------ Convergence Criteria  ( Zone 0 ) ---------------------
Maximum number of solver subiterations: 999999.
Begin convergence monitoring at iteration 5.
Residual minimum value: 1e-8.
Cauchy series min. value: 1e-10.
Number of Cauchy elements: 100.
Begin windowed time average at iteration 0.

-------------------- Output Information ( Zone 0 ) ----------------------
File writing frequency: 
+------------------------------------+
|                     File| Frequency|
+------------------------------------+
|                  RESTART|       150|
|                 PARAVIEW|       150|
|         SURFACE_PARAVIEW|       150|
+------------------------------------+
Writing the convergence history file every 1 inner iterations.
Writing the screen convergence history every 1 inner iterations.
The tabular file format is CSV (.csv).
Convergence history file name: history.
Forces breakdown file name: forces_breakdown.dat.
Surface file name: surface_flow.
Volume file name: flow.
Restart file name: restart_flow.

------------- Config File Boundary Information ( Zone 0 ) ---------------
+-----------------------------------------------------------------------+
|                        Marker Type|                        Marker Name|
+-----------------------------------------------------------------------+
|                          Far-field|                           FARFIELD|
+-----------------------------------------------------------------------+
|                     Heat flux wall|                      ORION_SURFACE|
+-----------------------------------------------------------------------+

-------------------- Output Preprocessing ( Zone 0 ) --------------------

WARNING: SURFACE_PRESSURE_DROP can only be computed for at least 2 surfaces (outlet, inlet, ...)

Screen output fields: INNER_ITER, WALL_TIME, MIN_DELTA_TIME, MAX_DELTA_TIME, MIN_CFL, MAX_CFL, AVG_CFL, RMS_DENSITY, RMS_MOMENTUM-X, RMS_MOMENTUM-Y, RMS_MOMENTUM-Z, RMS_ENERGY, RMS_NU_TILDE, DRAG
History output group(s): ITER, RMS_RES
Convergence field(s): RMS_DENSITY
Warning: No (valid) fields chosen for time convergence monitoring. Time convergence monitoring inactive.
Volume output fields: COORDINATES, SOLUTION, PRIMITIVE

------------------- Geometry Preprocessing ( Zone 0 ) -------------------
Three dimensional problem.
11720736 grid points before partitioning.
30680382 volume elements before partitioning.
2 surface markers.
790 boundary elements in index 0 (Marker = FARFIELD).
360672 boundary elements in index 1 (Marker = ORION_SURFACE).
Executing the partitioning functions.
Building the graph adjacency structure.
Calling ParMETIS... graph partitioning complete (1579501 edge cuts).
Distributing ParMETIS coloring.
Rebalancing vertices.
Rebalancing volume element connectivity.
Rebalancing markers and surface elements.
13574281 vertices including ghost points. 
32958004 interior elements including halo cells. 
11628872 tetrahedra.
21220846 prisms.
108286 pyramids.
Establishing MPI communication patterns.
Setting point connectivity.
Renumbering points (Reverse Cuthill McKee Ordering).
Recomputing point connectivity.
Setting element connectivity.
Checking the numerical grid orientation.
All volume elements are correctly orientend.
All surface elements are correctly orientend.
Identifying edges and vertices.
Setting the control volume structure.
Volume of the computational grid: 591575.
Searching for the closest normal neighbors to the surfaces.
Storing a mapping from global to local point index.
Compute the surface curvature.
Max K: 109.201. Mean K: 3.88946. Standard deviation K: 7.33798.
Checking for periodicity.
Computing mesh quality statistics for the dual control volumes.
+--------------------------------------------------------------+
|           Mesh Quality Metric|        Minimum|        Maximum|
+--------------------------------------------------------------+
|    Orthogonality Angle (deg.)|        52.6472|             90|
|     CV Face Area Aspect Ratio|        1.03802|         193380|
|           CV Sub-Volume Ratio|        1.00749|         34.476|
+--------------------------------------------------------------+
Finding max control volume width.
Communicating number of neighbors.
Reference area = 11.5305 m^2.
Semi-span length = 2.49994 m.
Wetted area = 57.8992 m^2.
Area projection in the x-plane = 19.6317 m^2, y-plane = 11.5307 m^2, z-plane = 11.5305 m^2.
Max. coordinate in the x-direction = 2.575 m, y-direction = 2.49994 m, z-direction = 2.49989 m.
Min. coordinate in the x-direction = -0.71 m, y-direction = -2.49995 m, z-direction = -2.49995 m.
Computing wall distances.

-------------------- Solver Preprocessing ( Zone 0 ) --------------------
Viscous flow: Computing pressure using the ideal gas law
based on the free-stream temperature and a density computed
from the Reynolds number.
Force coefficients computed using free-stream values.

-- Models:
+------------------------------------------------------------------------------+
|          Viscosity Model|        Conductivity Model|              Fluid Model|
+------------------------------------------------------------------------------+
|               SUTHERLAND|          CONSTANT_PRANDTL|             STANDARD_AIR|
+------------------------------------------------------------------------------+
-- Fluid properties:
+------------------------------------------------------------------------------+
|                  Name|    Dim. value|    Ref. value|      Unit|Non-dim. value|
+------------------------------------------------------------------------------+
|        Ref. Viscosity|     1.716e-05|        3683.6|   N.s/m^2|   4.65848e-09|
|      Sutherland Temp.|        273.15|        288.15|         K|      0.947944|
|     Sutherland Const.|         110.4|        288.15|         K|      0.383134|
+------------------------------------------------------------------------------+
|        Prandtl (Lam.)|             -|             -|         -|          0.72|
|       Prandtl (Turb.)|             -|             -|         -|           0.9|
+------------------------------------------------------------------------------+
|          Gas Constant|       287.058|       32552.4|  N.m/kg.K|    0.00881834|
|      Spec. Heat Ratio|             -|             -|         -|           1.4|
+------------------------------------------------------------------------------+
-- Initial and free-stream conditions:
+------------------------------------------------------------------------------+
|                  Name|    Dim. value|    Ref. value|      Unit|Non-dim. value|
+------------------------------------------------------------------------------+
|       Static Pressure|       99485.6|   1.12817e+07|        Pa|    0.00881834|
|               Density|       1.20274|       1.20274|    kg/m^3|             1|
|           Temperature|        288.15|        288.15|         K|             1|
|          Total Energy|   4.89677e+06|   9.37997e+06|   m^2/s^2|      0.522046|
|            Velocity-X|       3062.67|       3062.67|       m/s|             1|
|            Velocity-Y|             0|       3062.67|       m/s|             0|
|            Velocity-Z|             0|       3062.67|       m/s|             0|
|    Velocity Magnitude|       3062.67|       3062.67|       m/s|             1|
+------------------------------------------------------------------------------+
|             Viscosity|    1.7893e-05|        3683.6|   N.s/m^2|   4.85747e-09|
|          Conductivity|             -|    1.1991e+08|   W/m^2.K|             -|
|     Turb. Kin. Energy|       35174.9|   9.37997e+06|   m^2/s^2|       0.00375|
|     Spec. Dissipation|   2.36441e+08|       3062.67|       1/s|       77200.7|
+------------------------------------------------------------------------------+
|           Mach Number|             -|             -|         -|             9|
|       Reynolds Number|             -|             -|         -|   1.02934e+09|
+------------------------------------------------------------------------------+
Initialize Jacobian structure (Navier-Stokes). MG level: 0.
Initialize Jacobian structure (SA model).

------------------- Numerics Preprocessing ( Zone 0 ) -------------------

----------------- Integration Preprocessing ( Zone 0 ) ------------------

------------------- Iteration Preprocessing ( Zone 0 ) ------------------
Euler/Navier-Stokes/RANS fluid iteration.

------------------------------ Begin Solver -----------------------------

Simulation Run using the Single-zone Driver
WARNING: SU2 was not compiled for an AVX-capable architecture. Performance could be better,
         see https://su2code.github.io/docs_v7/Build-SU2-Linux-MacOS/#compiler-optimizations
+-------------------------------------------------------------------------------------------------------------------------------------------------------------------------------------+
|  Inner_Iter|   Time(sec)|      Min DT|      Max DT|     Min CFL|     Max CFL|     Avg CFL|    rms[Rho]|   rms[RhoU]|   rms[RhoV]|   rms[RhoW]|   rms[RhoE]|     rms[nu]|          CD|
+-------------------------------------------------------------------------------------------------------------------------------------------------------------------------------------+
|           0|  3.9863e+00|  1.3304e-18|  3.4748e-03|  1.0000e-03|  1.0000e-03|  1.0000e-03|   -4.465908|   -4.728851|   -5.099608|   -5.099583|   -4.671883|   -6.744756|    3.410413|
|           1|  3.8292e+00|  1.3304e-18|  3.4748e-03|  1.0000e-03|  1.0000e-03|  1.0000e-03|   -4.465871|   -4.728864|   -5.099584|   -5.099559|   -4.671839|   -6.747446|    3.410333|
|           2|  3.7558e+00|  1.3304e-18|  3.4748e-03|  1.0000e-03|  1.0000e-03|  1.0000e-03|   -4.465833|   -4.728878|   -5.099560|   -5.099535|   -4.671795|   -6.749906|    3.410254|
|           3|  3.7260e+00|  1.3304e-18|  3.4748e-03|  1.0000e-03|  1.0000e-03|  1.0000e-03|   -4.465796|   -4.728892|   -5.099536|   -5.099511|   -4.671751|   -6.752165|    3.410174|
|           4|  3.7039e+00|  1.3304e-18|  3.4748e-03|  1.0000e-03|  1.0000e-03|  1.0000e-03|   -4.465759|   -4.728906|   -5.099511|   -5.099487|   -4.671707|   -6.754553|    3.410095|
|           5|  3.6900e+00|  1.3304e-18|  3.4748e-03|  1.0000e-03|  1.0000e-03|  1.0000e-03|   -4.465721|   -4.728920|   -5.099487|   -5.099462|   -4.671664|   -6.756727|    3.410015|
|           6|  3.6769e+00|  1.3304e-18|  3.4748e-03|  1.0000e-03|  1.0000e-03|  1.0000e-03|   -4.465684|   -4.728934|   -5.099463|   -5.099438|   -4.671620|   -6.758753|    3.409936|
|           7|  3.6662e+00|  1.3304e-18|  3.4748e-03|  1.0000e-03|  1.0000e-03|  1.0000e-03|   -4.465646|   -4.728948|   -5.099439|   -5.099414|   -4.671576|   -6.760625|    3.409856|
|           8|  3.6538e+00|  1.3304e-18|  3.4748e-03|  1.0000e-03|  1.0000e-03|  1.0000e-03|   -4.465609|   -4.728962|   -5.099415|   -5.099390|   -4.671532|   -6.762229|    3.409777|
|           9|  3.6371e+00|  1.3304e-18|  3.4748e-03|  1.0000e-03|  1.0000e-03|  1.0000e-03|   -4.465571|   -4.728975|   -5.099390|   -5.099366|   -4.671488|   -6.763520|    3.409697|
|          10|  3.6224e+00|  1.3304e-18|  3.4748e-03|  1.0000e-03|  1.0000e-03|  1.0000e-03|   -4.465534|   -4.728989|   -5.099366|   -5.099342|   -4.671444|   -6.765008|    3.409618|
|          11|  3.6078e+00|  1.3304e-18|  3.4748e-03|  1.0000e-03|  1.0000e-03|  1.0000e-03|   -4.465497|   -4.729003|   -5.099342|   -5.099317|   -4.671400|   -6.766347|    3.409539|
|          12|  3.5925e+00|  1.3304e-18|  3.4748e-03|  1.0000e-03|  1.0000e-03|  1.0000e-03|   -4.465459|   -4.729017|   -5.099318|   -5.099293|   -4.671356|   -6.767786|    3.409459|
|          13|  3.5817e+00|  1.3304e-18|  3.4748e-03|  1.0000e-03|  1.0000e-03|  1.0000e-03|   -4.465422|   -4.729031|   -5.099293|   -5.099269|   -4.671313|   -6.769125|    3.409380|
|          14|  3.5762e+00|  1.3304e-18|  3.4748e-03|  1.0000e-03|  1.0000e-03|  1.0000e-03|   -4.465385|   -4.729044|   -5.099269|   -5.099245|   -4.671269|   -6.770780|    3.409300|
|          15|  3.5692e+00|  1.3304e-18|  3.4748e-03|  1.0000e-03|  1.0000e-03|  1.0000e-03|   -4.465347|   -4.729058|   -5.099245|   -5.099221|   -4.671225|   -6.772413|    3.409221|
|          16|  3.5668e+00|  1.3304e-18|  3.4748e-03|  1.0000e-03|  1.0000e-03|  1.0000e-03|   -4.465310|   -4.729072|   -5.099221|   -5.099196|   -4.671181|   -6.774091|    3.409142|
|          17|  3.5599e+00|  1.3304e-18|  3.4748e-03|  1.0000e-03|  1.0000e-03|  1.0000e-03|   -4.465272|   -4.729086|   -5.099197|   -5.099172|   -4.671137|   -6.775668|    3.409062|
|          18|  3.5542e+00|  1.3304e-18|  3.4748e-03|  1.0000e-03|  1.0000e-03|  1.0000e-03|   -4.465235|   -4.729099|   -5.099172|   -5.099148|   -4.671093|   -6.777220|    3.408983|
|          19|  3.5477e+00|  1.3304e-18|  3.4748e-03|  1.0000e-03|  1.0000e-03|  1.0000e-03|   -4.465198|   -4.729113|   -5.099148|   -5.099124|   -4.671049|   -6.778670|    3.408904|
|          20|  3.5424e+00|  1.3304e-18|  3.4748e-03|  1.0000e-03|  1.0000e-03|  1.0000e-03|   -4.465160|   -4.729127|   -5.099124|   -5.099100|   -4.671005|   -6.780077|    3.408825|
|          21|  3.5376e+00|  1.3304e-18|  3.4748e-03|  1.0000e-03|  1.0000e-03|  1.0000e-03|   -4.465123|   -4.729141|   -5.099100|   -5.099075|   -4.670962|   -6.781027|    3.408745|
|          22|  3.5351e+00|  1.3304e-18|  3.4748e-03|  1.0000e-03|  1.0000e-03|  1.0000e-03|   -4.465086|   -4.729154|   -5.099076|   -5.099051|   -4.670918|   -6.781743|    3.408666|
|          23|  3.5314e+00|  1.3304e-18|  3.4748e-03|  1.0000e-03|  1.0000e-03|  1.0000e-03|   -4.465048|   -4.729168|   -5.099051|   -5.099027|   -4.670874|   -6.776502|    3.408587|
|          24|  3.5264e+00|  1.3304e-18|  3.4748e-03|  1.0000e-03|  1.0000e-03|  1.0000e-03|   -4.465011|   -4.729182|   -5.099027|   -5.099003|   -4.670830|   -6.777650|    3.408508|
|          25|  3.5271e+00|  1.3304e-18|  3.4748e-03|  1.0000e-03|  1.0000e-03|  1.0000e-03|   -4.464974|   -4.729195|   -5.099003|   -5.098979|   -4.670786|   -6.778660|    3.408429|
|          26|  3.5260e+00|  1.3304e-18|  3.4748e-03|  1.0000e-03|  1.0000e-03|  1.0000e-03|   -4.464936|   -4.729209|   -5.098979|   -5.098954|   -4.670742|   -6.779754|    3.408349|
|          27|  3.5215e+00|  1.3304e-18|  3.4748e-03|  1.0000e-03|  1.0000e-03|  1.0000e-03|   -4.464899|   -4.729223|   -5.098954|   -5.098930|   -4.670698|   -6.780734|    3.408270|
|          28|  3.5156e+00|  1.3304e-18|  3.4748e-03|  1.0000e-03|  1.0000e-03|  1.0000e-03|   -4.464862|   -4.729236|   -5.098930|   -5.098906|   -4.670654|   -6.781932|    3.408191|
|          29|  3.5109e+00|  1.3304e-18|  3.4748e-03|  1.0000e-03|  1.0000e-03|  1.0000e-03|   -4.464824|   -4.729250|   -5.098906|   -5.098882|   -4.670611|   -6.783113|    3.408112|
|          30|  3.5096e+00|  1.3304e-18|  3.4748e-03|  1.0000e-03|  1.0000e-03|  1.0000e-03|   -4.464787|   -4.729264|   -5.098882|   -5.098858|   -4.670567|   -6.784604|    3.408033|
|          31|  3.5082e+00|  1.3304e-18|  3.4748e-03|  1.0000e-03|  1.0000e-03|  1.0000e-03|   -4.464750|   -4.729277|   -5.098857|   -5.098833|   -4.670523|   -6.786192|    3.407954|
|          32|  3.5046e+00|  1.3304e-18|  3.4748e-03|  1.0000e-03|  1.0000e-03|  1.0000e-03|   -4.464712|   -4.729291|   -5.098833|   -5.098809|   -4.670479|   -6.788016|    3.407875|
|          33|  3.5023e+00|  1.3304e-18|  3.4748e-03|  1.0000e-03|  1.0000e-03|  1.0000e-03|   -4.464675|   -4.729305|   -5.098809|   -5.098785|   -4.670435|   -6.789808|    3.407796|
|          34|  3.5015e+00|  1.3304e-18|  3.4748e-03|  1.0000e-03|  1.0000e-03|  1.0000e-03|   -4.464638|   -4.729318|   -5.098785|   -5.098761|   -4.670391|   -6.791769|    3.407717|
|          35|  3.4978e+00|  1.3304e-18|  3.4748e-03|  1.0000e-03|  1.0000e-03|  1.0000e-03|   -4.464601|   -4.729332|   -5.098760|   -5.098737|   -4.670347|   -6.793450|    3.407638|
|          36|  3.4928e+00|  1.3304e-18|  3.4748e-03|  1.0000e-03|  1.0000e-03|  1.0000e-03|   -4.464563|   -4.729345|   -5.098736|   -5.098712|   -4.670303|   -6.795064|    3.407559|
|          37|  3.4885e+00|  1.3304e-18|  3.4748e-03|  1.0000e-03|  1.0000e-03|  1.0000e-03|   -4.464526|   -4.729359|   -5.098712|   -5.098688|   -4.670260|   -6.796490|    3.407480|
|          38|  3.4834e+00|  1.3304e-18|  3.4748e-03|  1.0000e-03|  1.0000e-03|  1.0000e-03|   -4.464489|   -4.729372|   -5.098688|   -5.098664|   -4.670216|   -6.797818|    3.407401|
|          39|  3.4788e+00|  1.3304e-18|  3.4748e-03|  1.0000e-03|  1.0000e-03|  1.0000e-03|   -4.464451|   -4.729386|   -5.098663|   -5.098640|   -4.670172|   -6.799026|    3.407322|
|          40|  3.4751e+00|  1.3304e-18|  3.4748e-03|  1.0000e-03|  1.0000e-03|  1.0000e-03|   -4.464414|   -4.729400|   -5.098639|   -5.098616|   -4.670128|   -6.800188|    3.407243|
|          41|  3.4716e+00|  1.3304e-18|  3.4748e-03|  1.0000e-03|  1.0000e-03|  1.0000e-03|   -4.464377|   -4.729413|   -5.098615|   -5.098591|   -4.670084|   -6.801272|    3.407164|
|          42|  3.4677e+00|  1.3304e-18|  3.4748e-03|  1.0000e-03|  1.0000e-03|  1.0000e-03|   -4.464340|   -4.729427|   -5.098591|   -5.098567|   -4.670040|   -6.802340|    3.407085|
|          43|  3.4637e+00|  1.3304e-18|  3.4748e-03|  1.0000e-03|  1.0000e-03|  1.0000e-03|   -4.464302|   -4.729440|   -5.098566|   -5.098543|   -4.669996|   -6.803522|    3.407006|
|          44|  3.4596e+00|  1.3304e-18|  3.4748e-03|  1.0000e-03|  1.0000e-03|  1.0000e-03|   -4.464265|   -4.729454|   -5.098542|   -5.098519|   -4.669953|   -6.804597|    3.406928|
|          45|  3.4559e+00|  1.3304e-18|  3.4748e-03|  1.0000e-03|  1.0000e-03|  1.0000e-03|   -4.464228|   -4.729467|   -5.098518|   -5.098494|   -4.669909|   -6.805592|    3.406849|
|          46|  3.4533e+00|  1.3304e-18|  3.4748e-03|  1.0000e-03|  1.0000e-03|  1.0000e-03|   -4.464191|   -4.729481|   -5.098494|   -5.098470|   -4.669865|   -6.806632|    3.406770|
|          47|  3.4507e+00|  1.3304e-18|  3.4748e-03|  1.0000e-03|  1.0000e-03|  1.0000e-03|   -4.464154|   -4.729494|   -5.098469|   -5.098446|   -4.669821|   -6.807587|    3.406691|
|          48|  3.4488e+00|  1.3304e-18|  3.4748e-03|  1.0000e-03|  1.0000e-03|  1.0000e-03|   -4.464116|   -4.729507|   -5.098445|   -5.098422|   -4.669777|   -6.808590|    3.406612|
|          49|  3.4466e+00|  1.3304e-18|  3.4748e-03|  1.0000e-03|  1.0000e-03|  1.0000e-03|   -4.464079|   -4.729521|   -5.098421|   -5.098398|   -4.669733|   -6.809520|    3.406534|
|          50|  3.4439e+00|  1.3304e-18|  3.4748e-03|  1.0000e-03|  1.0000e-03|  1.0000e-03|   -4.464042|   -4.729534|   -5.098397|   -5.098373|   -4.669690|   -6.810426|    3.406455|
|          51|  3.4408e+00|  1.3304e-18|  3.4748e-03|  1.0000e-03|  1.0000e-03|  1.0000e-03|   -4.464005|   -4.729548|   -5.098372|   -5.098349|   -4.669646|   -6.811457|    3.406376|
|          52|  3.4376e+00|  1.3304e-18|  3.4748e-03|  1.0000e-03|  1.0000e-03|  1.0000e-03|   -4.463968|   -4.729561|   -5.098348|   -5.098325|   -4.669602|   -6.812479|    3.406297|
|          53|  3.4351e+00|  1.3304e-18|  3.4748e-03|  1.0000e-03|  1.0000e-03|  1.0000e-03|   -4.463930|   -4.729575|   -5.098324|   -5.098301|   -4.669558|   -6.813372|    3.406219|
|          54|  3.4323e+00|  1.3304e-18|  3.4748e-03|  1.0000e-03|  1.0000e-03|  1.0000e-03|   -4.463893|   -4.729588|   -5.098300|   -5.098276|   -4.669514|   -6.814476|    3.406140|
|          55|  3.4295e+00|  1.3304e-18|  3.4748e-03|  1.0000e-03|  1.0000e-03|  1.0000e-03|   -4.463856|   -4.729601|   -5.098275|   -5.098252|   -4.669470|   -6.815450|    3.406061|
|          56|  3.4266e+00|  1.3304e-18|  3.4748e-03|  1.0000e-03|  1.0000e-03|  1.0000e-03|   -4.463819|   -4.729615|   -5.098251|   -5.098228|   -4.669426|   -6.816390|    3.405983|
|          57|  3.4241e+00|  1.3304e-18|  3.4748e-03|  1.0000e-03|  1.0000e-03|  1.0000e-03|   -4.463782|   -4.729628|   -5.098227|   -5.098204|   -4.669383|   -6.817356|    3.405904|
|          58|  3.4212e+00|  1.3304e-18|  3.4748e-03|  1.0000e-03|  1.0000e-03|  1.0000e-03|   -4.463745|   -4.729641|   -5.098203|   -5.098179|   -4.669339|   -6.818291|    3.405825|
|          59|  3.4193e+00|  1.3304e-18|  3.4748e-03|  1.0000e-03|  1.0000e-03|  1.0000e-03|   -4.463707|   -4.729655|   -5.098178|   -5.098155|   -4.669295|   -6.819219|    3.405747|
|          60|  3.4174e+00|  1.3304e-18|  3.4748e-03|  1.0000e-03|  1.0000e-03|  1.0000e-03|   -4.463670|   -4.729668|   -5.098154|   -5.098131|   -4.669251|   -6.820131|    3.405668|
|          61|  3.4159e+00|  1.3304e-18|  3.4748e-03|  1.0000e-03|  1.0000e-03|  1.0000e-03|   -4.463633|   -4.729681|   -5.098130|   -5.098107|   -4.669207|   -6.821036|    3.405590|
|          62|  3.4143e+00|  1.3304e-18|  3.4748e-03|  1.0000e-03|  1.0000e-03|  1.0000e-03|   -4.463596|   -4.729695|   -5.098105|   -5.098083|   -4.669164|   -6.821923|    3.405511|
|          63|  3.4141e+00|  1.3304e-18|  3.4748e-03|  1.0000e-03|  1.0000e-03|  1.0000e-03|   -4.463559|   -4.729708|   -5.098081|   -5.098058|   -4.669120|   -6.822801|    3.405433|
|          64|  3.4116e+00|  1.3304e-18|  3.4748e-03|  1.0000e-03|  1.0000e-03|  1.0000e-03|   -4.463522|   -4.729721|   -5.098057|   -5.098034|   -4.669076|   -6.823657|    3.405354|
|          65|  3.4095e+00|  1.3304e-18|  3.4748e-03|  1.0000e-03|  1.0000e-03|  1.0000e-03|   -4.463485|   -4.729735|   -5.098033|   -5.098010|   -4.669032|   -6.824327|    3.405276|
|          66|  3.4080e+00|  1.3304e-18|  3.4748e-03|  1.0000e-03|  1.0000e-03|  1.0000e-03|   -4.463447|   -4.729748|   -5.098008|   -5.097986|   -4.668988|   -6.824898|    3.405197|
|          67|  3.4070e+00|  1.3304e-18|  3.4748e-03|  1.0000e-03|  1.0000e-03|  1.0000e-03|   -4.463410|   -4.729761|   -5.097984|   -5.097961|   -4.668944|   -6.825723|    3.405119|
|          68|  3.4064e+00|  1.3304e-18|  3.4748e-03|  1.0000e-03|  1.0000e-03|  1.0000e-03|   -4.463373|   -4.729774|   -5.097960|   -5.097937|   -4.668901|   -6.826541|    3.405040|
|          69|  3.4057e+00|  1.3304e-18|  3.4748e-03|  1.0000e-03|  1.0000e-03|  1.0000e-03|   -4.463336|   -4.729788|   -5.097936|   -5.097913|   -4.668857|   -6.827196|    3.404962|
|          70|  3.4041e+00|  1.3304e-18|  3.4748e-03|  1.0000e-03|  1.0000e-03|  1.0000e-03|   -4.463299|   -4.729801|   -5.097911|   -5.097889|   -4.668813|   -6.828000|    3.404883|
|          71|  3.4021e+00|  1.3304e-18|  3.4748e-03|  1.0000e-03|  1.0000e-03|  1.0000e-03|   -4.463262|   -4.729814|   -5.097887|   -5.097864|   -4.668769|   -6.828664|    3.404805|
|          72|  3.3997e+00|  1.3304e-18|  3.4748e-03|  1.0000e-03|  1.0000e-03|  1.0000e-03|   -4.463225|   -4.729827|   -5.097863|   -5.097840|   -4.668725|   -6.829293|    3.404727|
|          73|  3.3988e+00|  1.3304e-18|  3.4748e-03|  1.0000e-03|  1.0000e-03|  1.0000e-03|   -4.463188|   -4.729840|   -5.097838|   -5.097816|   -4.668682|   -6.830093|    3.404648|
|          74|  3.3970e+00|  1.3304e-18|  3.4748e-03|  1.0000e-03|  1.0000e-03|  1.0000e-03|   -4.463151|   -4.729854|   -5.097814|   -5.097792|   -4.668638|   -6.830898|    3.404570|
|          75|  3.3956e+00|  1.3304e-18|  3.4748e-03|  1.0000e-03|  1.0000e-03|  1.0000e-03|   -4.463114|   -4.729867|   -5.097790|   -5.097767|   -4.668594|   -6.831585|    3.404492|
|          76|  3.3941e+00|  1.3304e-18|  3.4748e-03|  1.0000e-03|  1.0000e-03|  1.0000e-03|   -4.463077|   -4.729880|   -5.097766|   -5.097743|   -4.668550|   -6.832369|    3.404413|
|          77|  3.3930e+00|  1.3304e-18|  3.4748e-03|  1.0000e-03|  1.0000e-03|  1.0000e-03|   -4.463040|   -4.729893|   -5.097741|   -5.097719|   -4.668506|   -6.832970|    3.404335|
|          78|  3.3917e+00|  1.3304e-18|  3.4748e-03|  1.0000e-03|  1.0000e-03|  1.0000e-03|   -4.463003|   -4.729906|   -5.097717|   -5.097695|   -4.668463|   -6.833427|    3.404257|
|          79|  3.3900e+00|  1.3304e-18|  3.4748e-03|  1.0000e-03|  1.0000e-03|  1.0000e-03|   -4.462965|   -4.729919|   -5.097693|   -5.097670|   -4.668419|   -6.834159|    3.404179|
|          80|  3.3892e+00|  1.3304e-18|  3.4748e-03|  1.0000e-03|  1.0000e-03|  1.0000e-03|   -4.462928|   -4.729932|   -5.097668|   -5.097646|   -4.668375|   -6.834891|    3.404100|
|          81|  3.3878e+00|  1.3304e-18|  3.4748e-03|  1.0000e-03|  1.0000e-03|  1.0000e-03|   -4.462891|   -4.729946|   -5.097644|   -5.097622|   -4.668331|   -6.835573|    3.404022|
|          82|  3.3868e+00|  1.3304e-18|  3.4748e-03|  1.0000e-03|  1.0000e-03|  1.0000e-03|   -4.462854|   -4.729959|   -5.097620|   -5.097598|   -4.668287|   -6.836141|    3.403944|
|          83|  3.3859e+00|  1.3304e-18|  3.4748e-03|  1.0000e-03|  1.0000e-03|  1.0000e-03|   -4.462817|   -4.729972|   -5.097596|   -5.097573|   -4.668244|   -6.836842|    3.403866|
|          84|  3.3845e+00|  1.3304e-18|  3.4748e-03|  1.0000e-03|  1.0000e-03|  1.0000e-03|   -4.462780|   -4.729985|   -5.097571|   -5.097549|   -4.668200|   -6.837558|    3.403788|
|          85|  3.3833e+00|  1.3304e-18|  3.4748e-03|  1.0000e-03|  1.0000e-03|  1.0000e-03|   -4.462743|   -4.729998|   -5.097547|   -5.097525|   -4.668156|   -6.837846|    3.403709|
|          86|  3.3824e+00|  1.3304e-18|  3.4748e-03|  1.0000e-03|  1.0000e-03|  1.0000e-03|   -4.462706|   -4.730011|   -5.097523|   -5.097501|   -4.668112|   -6.838646|    3.403631|
|          87|  3.3811e+00|  1.3304e-18|  3.4748e-03|  1.0000e-03|  1.0000e-03|  1.0000e-03|   -4.462669|   -4.730024|   -5.097498|   -5.097476|   -4.668068|   -6.839282|    3.403553|
|          88|  3.3797e+00|  1.3304e-18|  3.4748e-03|  1.0000e-03|  1.0000e-03|  1.0000e-03|   -4.462632|   -4.730037|   -5.097474|   -5.097452|   -4.668025|   -6.839808|    3.403475|
|          89|  3.3783e+00|  1.3304e-18|  3.4748e-03|  1.0000e-03|  1.0000e-03|  1.0000e-03|   -4.462595|   -4.730050|   -5.097450|   -5.097428|   -4.667981|   -6.840708|    3.403397|
|          90|  3.3770e+00|  1.3304e-18|  3.4748e-03|  1.0000e-03|  1.0000e-03|  1.0000e-03|   -4.462558|   -4.730063|   -5.097426|   -5.097403|   -4.667937|   -6.841346|    3.403319|
|          91|  3.3762e+00|  1.3304e-18|  3.4748e-03|  1.0000e-03|  1.0000e-03|  1.0000e-03|   -4.462521|   -4.730076|   -5.097401|   -5.097379|   -4.667893|   -6.841963|    3.403241|
|          92|  3.3747e+00|  1.3304e-18|  3.4748e-03|  1.0000e-03|  1.0000e-03|  1.0000e-03|   -4.462484|   -4.730089|   -5.097377|   -5.097355|   -4.667850|   -6.842588|    3.403163|
|          93|  3.3732e+00|  1.3304e-18|  3.4748e-03|  1.0000e-03|  1.0000e-03|  1.0000e-03|   -4.462448|   -4.730102|   -5.097353|   -5.097331|   -4.667806|   -6.843229|    3.403085|
|          94|  3.3719e+00|  1.3304e-18|  3.4748e-03|  1.0000e-03|  1.0000e-03|  1.0000e-03|   -4.462411|   -4.730115|   -5.097328|   -5.097306|   -4.667762|   -6.843238|    3.403007|
|          95|  3.3706e+00|  1.3304e-18|  3.4748e-03|  1.0000e-03|  1.0000e-03|  1.0000e-03|   -4.462374|   -4.730128|   -5.097304|   -5.097282|   -4.667718|   -6.843938|    3.402929|
|          96|  3.3693e+00|  1.3304e-18|  3.4748e-03|  1.0000e-03|  1.0000e-03|  1.0000e-03|   -4.462337|   -4.730141|   -5.097280|   -5.097258|   -4.667675|   -6.835862|    3.402851|
|          97|  3.3678e+00|  1.3304e-18|  3.4748e-03|  1.0000e-03|  1.0000e-03|  1.0000e-03|   -4.462300|   -4.730154|   -5.097256|   -5.097234|   -4.667631|   -6.792075|    3.402773|
|          98|  3.3671e+00|  1.3304e-18|  3.4748e-03|  1.0000e-03|  1.0000e-03|  1.0000e-03|   -4.462263|   -4.730167|   -5.097231|   -5.097209|   -4.667587|   -6.812270|    3.402695|
|          99|  3.3665e+00|  1.3304e-18|  3.4748e-03|  1.0000e-03|  1.0000e-03|  1.0000e-03|   -4.462226|   -4.730180|   -5.097207|   -5.097185|   -4.667543|   -6.814196|    3.402617|
|         100|  3.3658e+00|  1.3304e-18|  3.4748e-03|  1.0000e-03|  1.0000e-03|  1.0000e-03|   -4.462189|   -4.730193|   -5.097183|   -5.097161|   -4.667500|   -6.815062|    3.402539|
|         101|  3.3656e+00|  1.3304e-18|  3.4748e-03|  1.0000e-03|  1.0000e-03|  1.0000e-03|   -4.462152|   -4.730205|   -5.097158|   -5.097137|   -4.667456|   -6.815835|    3.402461|
|         102|  3.3657e+00|  1.3304e-18|  3.4748e-03|  1.0000e-03|  1.0000e-03|  1.0000e-03|   -4.462115|   -4.730218|   -5.097134|   -5.097112|   -4.667412|   -6.816959|    3.402384|
|         103|  3.3656e+00|  1.3304e-18|  3.4748e-03|  1.0000e-03|  1.0000e-03|  1.0000e-03|   -4.462078|   -4.730231|   -5.097110|   -5.097088|   -4.667368|   -6.817837|    3.402306|
|         104|  3.3652e+00|  1.3304e-18|  3.4748e-03|  1.0000e-03|  1.0000e-03|  1.0000e-03|   -4.462041|   -4.730244|   -5.097085|   -5.097064|   -4.667325|   -6.818745|    3.402228|
|         105|  3.3649e+00|  1.3304e-18|  3.4748e-03|  1.0000e-03|  1.0000e-03|  1.0000e-03|   -4.462005|   -4.730257|   -5.097061|   -5.097039|   -4.667281|   -6.819463|    3.402150|
|         106|  3.3646e+00|  1.3304e-18|  3.4748e-03|  1.0000e-03|  1.0000e-03|  1.0000e-03|   -4.461968|   -4.730270|   -5.097037|   -5.097015|   -4.667237|   -6.819858|    3.402072|
|         107|  3.3642e+00|  1.3304e-18|  3.4748e-03|  1.0000e-03|  1.0000e-03|  1.0000e-03|   -4.461931|   -4.730282|   -5.097013|   -5.096991|   -4.667193|   -6.819998|    3.401995|
|         108|  3.3638e+00|  1.3304e-18|  3.4748e-03|  1.0000e-03|  1.0000e-03|  1.0000e-03|   -4.461894|   -4.730295|   -5.096988|   -5.096967|   -4.667150|   -6.819665|    3.401917|
|         109|  3.3633e+00|  1.3304e-18|  3.4748e-03|  1.0000e-03|  1.0000e-03|  1.0000e-03|   -4.461857|   -4.730308|   -5.096964|   -5.096942|   -4.667106|   -6.821376|    3.401839|
|         110|  3.3629e+00|  1.3304e-18|  3.4748e-03|  1.0000e-03|  1.0000e-03|  1.0000e-03|   -4.461820|   -4.730321|   -5.096940|   -5.096918|   -4.667062|   -6.821423|    3.401761|
|         111|  3.3620e+00|  1.3304e-18|  3.4748e-03|  1.0000e-03|  1.0000e-03|  1.0000e-03|   -4.461783|   -4.730334|   -5.096915|   -5.096894|   -4.667018|   -6.822455|    3.401684|
|         112|  3.3612e+00|  1.3304e-18|  3.4748e-03|  1.0000e-03|  1.0000e-03|  1.0000e-03|   -4.461746|   -4.730346|   -5.096891|   -5.096870|   -4.666975|   -6.823738|    3.401606|
|         113|  3.3604e+00|  1.3304e-18|  3.4748e-03|  1.0000e-03|  1.0000e-03|  1.0000e-03|   -4.461710|   -4.730359|   -5.096867|   -5.096845|   -4.666931|   -6.824009|    3.401528|
|         114|  3.3598e+00|  1.3304e-18|  3.4748e-03|  1.0000e-03|  1.0000e-03|  1.0000e-03|   -4.461673|   -4.730372|   -5.096842|   -5.096821|   -4.666887|   -6.825366|    3.401451|
|         115|  3.3593e+00|  1.3304e-18|  3.4748e-03|  1.0000e-03|  1.0000e-03|  1.0000e-03|   -4.461636|   -4.730385|   -5.096818|   -5.096797|   -4.666844|   -6.821942|    3.401373|
|         116|  3.3585e+00|  1.3304e-18|  3.4748e-03|  1.0000e-03|  1.0000e-03|  1.0000e-03|   -4.461599|   -4.730397|   -5.096794|   -5.096772|   -4.666800|   -6.826644|    3.401295|
|         117|  3.3578e+00|  1.3304e-18|  3.4748e-03|  1.0000e-03|  1.0000e-03|  1.0000e-03|   -4.461562|   -4.730410|   -5.096770|   -5.096748|   -4.666756|   -6.824466|    3.401218|
|         118|  3.3572e+00|  1.3304e-18|  3.4748e-03|  1.0000e-03|  1.0000e-03|  1.0000e-03|   -4.461526|   -4.730423|   -5.096745|   -5.096724|   -4.666713|   -6.827432|    3.401140|
|         119|  3.3567e+00|  1.3304e-18|  3.4748e-03|  1.0000e-03|  1.0000e-03|  1.0000e-03|   -4.461489|   -4.730435|   -5.096721|   -5.096700|   -4.666669|   -6.821431|    3.401063|
|         120|  3.3561e+00|  1.3304e-18|  3.4748e-03|  1.0000e-03|  1.0000e-03|  1.0000e-03|   -4.461452|   -4.730448|   -5.096697|   -5.096675|   -4.666625|   -6.827230|    3.400985|
|         121|  3.3552e+00|  1.3304e-18|  3.4748e-03|  1.0000e-03|  1.0000e-03|  1.0000e-03|   -4.461415|   -4.730461|   -5.096672|   -5.096651|   -4.666581|   -6.828422|    3.400908|
|         122|  3.3545e+00|  1.3304e-18|  3.4748e-03|  1.0000e-03|  1.0000e-03|  1.0000e-03|   -4.461378|   -4.730473|   -5.096648|   -5.096627|   -4.666538|   -6.829283|    3.400830|
|         123|  3.3538e+00|  1.3304e-18|  3.4748e-03|  1.0000e-03|  1.0000e-03|  1.0000e-03|   -4.461342|   -4.730486|   -5.096624|   -5.096603|   -4.666494|   -6.829677|    3.400753|
|         124|  3.3533e+00|  1.3304e-18|  3.4748e-03|  1.0000e-03|  1.0000e-03|  1.0000e-03|   -4.461305|   -4.730499|   -5.096599|   -5.096578|   -4.666450|   -6.830670|    3.400675|
|         125|  3.3526e+00|  1.3304e-18|  3.4748e-03|  1.0000e-03|  1.0000e-03|  1.0000e-03|   -4.461268|   -4.730511|   -5.096575|   -5.096554|   -4.666407|   -6.827006|    3.400598|
|         126|  3.3519e+00|  1.3304e-18|  3.4748e-03|  1.0000e-03|  1.0000e-03|  1.0000e-03|   -4.461231|   -4.730524|   -5.096551|   -5.096530|   -4.666363|   -6.828694|    3.400520|
|         127|  3.3512e+00|  1.3304e-18|  3.4748e-03|  1.0000e-03|  1.0000e-03|  1.0000e-03|   -4.461195|   -4.730536|   -5.096527|   -5.096505|   -4.666319|   -6.825851|    3.400443|
|         128|  3.3509e+00|  1.3304e-18|  3.4748e-03|  1.0000e-03|  1.0000e-03|  1.0000e-03|   -4.461158|   -4.730549|   -5.096502|   -5.096481|   -4.666276|   -6.825095|    3.400366|
|         129|  3.3504e+00|  1.3304e-18|  3.4748e-03|  1.0000e-03|  1.0000e-03|  1.0000e-03|   -4.461121|   -4.730562|   -5.096478|   -5.096457|   -4.666232|   -6.823545|    3.400288|
|         130|  3.3498e+00|  1.3304e-18|  3.4748e-03|  1.0000e-03|  1.0000e-03|  1.0000e-03|   -4.461084|   -4.730574|   -5.096454|   -5.096433|   -4.666188|   -6.823859|    3.400211|
|         131|  3.3493e+00|  1.3304e-18|  3.4748e-03|  1.0000e-03|  1.0000e-03|  1.0000e-03|   -4.461048|   -4.730587|   -5.096429|   -5.096408|   -4.666145|   -6.826311|    3.400133|
|         132|  3.3486e+00|  1.3304e-18|  3.4748e-03|  1.0000e-03|  1.0000e-03|  1.0000e-03|   -4.461011|   -4.730599|   -5.096405|   -5.096384|   -4.666101|   -6.827127|    3.400056|
|         133|  3.3484e+00|  1.3304e-18|  3.4748e-03|  1.0000e-03|  1.0000e-03|  1.0000e-03|   -4.460974|   -4.730612|   -5.096381|   -5.096360|   -4.666057|   -6.827971|    3.399979|
|         134|  3.3481e+00|  1.3304e-18|  3.4748e-03|  1.0000e-03|  1.0000e-03|  1.0000e-03|   -4.460938|   -4.730624|   -5.096356|   -5.096336|   -4.666014|   -6.828471|    3.399902|
|         135|  3.3480e+00|  1.3304e-18|  3.4748e-03|  1.0000e-03|  1.0000e-03|  1.0000e-03|   -4.460901|   -4.730637|   -5.096332|   -5.096311|   -4.665970|   -6.829301|    3.399824|
|         136|  3.3480e+00|  1.3304e-18|  3.4748e-03|  1.0000e-03|  1.0000e-03|  1.0000e-03|   -4.460864|   -4.730649|   -5.096308|   -5.096287|   -4.665927|   -6.830029|    3.399747|
|         137|  3.3479e+00|  1.3304e-18|  3.4748e-03|  1.0000e-03|  1.0000e-03|  1.0000e-03|   -4.460828|   -4.730662|   -5.096284|   -5.096263|   -4.665883|   -6.830839|    3.399670|
|         138|  3.3476e+00|  1.3304e-18|  3.4748e-03|  1.0000e-03|  1.0000e-03|  1.0000e-03|   -4.460791|   -4.730674|   -5.096259|   -5.096238|   -4.665839|   -6.831387|    3.399593|
|         139|  3.3475e+00|  1.3304e-18|  3.4748e-03|  1.0000e-03|  1.0000e-03|  1.0000e-03|   -4.460754|   -4.730687|   -5.096235|   -5.096214|   -4.665796|   -6.832239|    3.399515|
|         140|  3.3473e+00|  1.3304e-18|  3.4748e-03|  1.0000e-03|  1.0000e-03|  1.0000e-03|   -4.460718|   -4.730699|   -5.096211|   -5.096190|   -4.665752|   -6.832274|    3.399438|
|         141|  3.3471e+00|  1.3304e-18|  3.4748e-03|  1.0000e-03|  1.0000e-03|  1.0000e-03|   -4.460681|   -4.730711|   -5.096186|   -5.096166|   -4.665708|   -6.833350|    3.399361|
|         142|  3.3465e+00|  1.3304e-18|  3.4748e-03|  1.0000e-03|  1.0000e-03|  1.0000e-03|   -4.460644|   -4.730724|   -5.096162|   -5.096141|   -4.665665|   -6.831818|    3.399284|
|         143|  3.3461e+00|  1.3304e-18|  3.4748e-03|  1.0000e-03|  1.0000e-03|  1.0000e-03|   -4.460608|   -4.730736|   -5.096138|   -5.096117|   -4.665621|   -6.833417|    3.399207|
|         144|  3.3456e+00|  1.3304e-18|  3.4748e-03|  1.0000e-03|  1.0000e-03|  1.0000e-03|   -4.460571|   -4.730749|   -5.096113|   -5.096093|   -4.665578|   -6.834119|    3.399130|
|         145|  3.3451e+00|  1.3304e-18|  3.4748e-03|  1.0000e-03|  1.0000e-03|  1.0000e-03|   -4.460534|   -4.730761|   -5.096089|   -5.096069|   -4.665534|   -6.834034|    3.399052|
|         146|  3.3446e+00|  1.3304e-18|  3.4748e-03|  1.0000e-03|  1.0000e-03|  1.0000e-03|   -4.460498|   -4.730773|   -5.096065|   -5.096044|   -4.665490|   -6.834758|    3.398975|
|         147|  3.3443e+00|  1.3304e-18|  3.4748e-03|  1.0000e-03|  1.0000e-03|  1.0000e-03|   -4.460461|   -4.730786|   -5.096041|   -5.096020|   -4.665447|   -6.835275|    3.398898|
|         148|  3.3438e+00|  1.3304e-18|  3.4748e-03|  1.0000e-03|  1.0000e-03|  1.0000e-03|   -4.460425|   -4.730798|   -5.096016|   -5.095996|   -4.665403|   -6.835826|    3.398821|
|         149|  3.3432e+00|  1.3304e-18|  3.4748e-03|  1.0000e-03|  1.0000e-03|  1.0000e-03|   -4.460388|   -4.730810|   -5.095992|   -5.095971|   -4.665360|   -6.836484|    3.398744|
|         150|  3.3425e+00|  1.3304e-18|  3.4748e-03|  1.0000e-03|  1.0000e-03|  1.0000e-03|   -4.460351|   -4.730823|   -5.095968|   -5.095947|   -4.665316|   -6.837105|    3.398667|
+-----------------------------------------------------------------------+
|        File Writing Summary       |              Filename             |
+-----------------------------------------------------------------------+
|SU2 binary restart                 |restart_flow.dat                   |
|Paraview                           |flow.vtu                           |
|Paraview surface                   |surface_flow.vtu                   |
+-----------------------------------------------------------------------+
+-------------------------------------------------------------------------------------------------------------------------------------------------------------------------------------+
|  Inner_Iter|   Time(sec)|      Min DT|      Max DT|     Min CFL|     Max CFL|     Avg CFL|    rms[Rho]|   rms[RhoU]|   rms[RhoV]|   rms[RhoW]|   rms[RhoE]|     rms[nu]|          CD|
+-------------------------------------------------------------------------------------------------------------------------------------------------------------------------------------+
|         151|  3.4054e+00|  1.3304e-18|  3.4748e-03|  1.0000e-03|  1.0000e-03|  1.0000e-03|   -4.460315|   -4.730835|   -5.095943|   -5.095923|   -4.665272|   -6.837786|    3.398590|
|         152|  3.4050e+00|  1.3304e-18|  3.4748e-03|  1.0000e-03|  1.0000e-03|  1.0000e-03|   -4.460278|   -4.730847|   -5.095919|   -5.095899|   -4.665229|   -6.533874|    3.398513|
|         153|  3.4050e+00|  1.3304e-18|  3.4748e-03|  1.0000e-03|  1.0000e-03|  1.0000e-03|   -4.460242|   -4.730860|   -5.095895|   -5.095874|   -4.665185|   -6.782620|    3.398436|
|         154|  3.4050e+00|  1.3304e-18|  3.4748e-03|  1.0000e-03|  1.0000e-03|  1.0000e-03|   -4.460205|   -4.730872|   -5.095871|   -5.095850|   -4.665142|   -6.790131|    3.398359|
|         155|  3.4053e+00|  1.3304e-18|  3.4748e-03|  1.0000e-03|  1.0000e-03|  1.0000e-03|   -4.460169|   -4.730884|   -5.095846|   -5.095826|   -4.665098|   -6.798099|    3.398282|
|         156|  3.4053e+00|  1.3304e-18|  3.4748e-03|  1.0000e-03|  1.0000e-03|  1.0000e-03|   -4.460132|   -4.730896|   -5.095822|   -5.095802|   -4.665055|   -6.804575|    3.398206|
|         157|  3.4050e+00|  1.3304e-18|  3.4748e-03|  1.0000e-03|  1.0000e-03|  1.0000e-03|   -4.460096|   -4.730909|   -5.095798|   -5.095777|   -4.665011|   -6.810417|    3.398129|
|         158|  3.4048e+00|  1.3304e-18|  3.4748e-03|  1.0000e-03|  1.0000e-03|  1.0000e-03|   -4.460059|   -4.730921|   -5.095773|   -5.095753|   -4.664968|   -6.815255|    3.398052|
|         159|  3.4048e+00|  1.3304e-18|  3.4748e-03|  1.0000e-03|  1.0000e-03|  1.0000e-03|   -4.460023|   -4.730933|   -5.095749|   -5.095729|   -4.664924|   -6.818762|    3.397975|
|         160|  3.4048e+00|  1.3304e-18|  3.4748e-03|  1.0000e-03|  1.0000e-03|  1.0000e-03|   -4.459986|   -4.730945|   -5.095725|   -5.095705|   -4.664880|   -6.823103|    3.397898|
|         161|  3.4046e+00|  1.3304e-18|  3.4748e-03|  1.0000e-03|  1.0000e-03|  1.0000e-03|   -4.459950|   -4.730957|   -5.095700|   -5.095680|   -4.664837|   -6.826244|    3.397821|
|         162|  3.4043e+00|  1.3304e-18|  3.4748e-03|  1.0000e-03|  1.0000e-03|  1.0000e-03|   -4.459913|   -4.730970|   -5.095676|   -5.095656|   -4.664793|   -6.828859|    3.397744|
|         163|  3.4041e+00|  1.3304e-18|  3.4748e-03|  1.0000e-03|  1.0000e-03|  1.0000e-03|   -4.459877|   -4.730982|   -5.095652|   -5.095632|   -4.664750|   -6.831264|    3.397668|
|         164|  3.4041e+00|  1.3304e-18|  3.4748e-03|  1.0000e-03|  1.0000e-03|  1.0000e-03|   -4.459840|   -4.730994|   -5.095628|   -5.095607|   -4.664706|   -6.833423|    3.397591|
|         165|  3.4039e+00|  1.3304e-18|  3.4748e-03|  1.0000e-03|  1.0000e-03|  1.0000e-03|   -4.459804|   -4.731006|   -5.095603|   -5.095583|   -4.664663|   -6.835196|    3.397514|
|         166|  3.4035e+00|  1.3304e-18|  3.4748e-03|  1.0000e-03|  1.0000e-03|  1.0000e-03|   -4.459767|   -4.731018|   -5.095579|   -5.095559|   -4.664619|   -6.836607|    3.397437|
|         167|  3.4029e+00|  1.3304e-18|  3.4748e-03|  1.0000e-03|  1.0000e-03|  1.0000e-03|   -4.459731|   -4.731030|   -5.095555|   -5.095535|   -4.664576|   -6.838084|    3.397361|
|         168|  3.4025e+00|  1.3304e-18|  3.4748e-03|  1.0000e-03|  1.0000e-03|  1.0000e-03|   -4.459694|   -4.731042|   -5.095530|   -5.095510|   -4.664532|   -6.666955|    3.397284|
|         169|  3.4021e+00|  1.3304e-18|  3.4748e-03|  1.0000e-03|  1.0000e-03|  1.0000e-03|   -4.459658|   -4.731054|   -5.095506|   -5.095486|   -4.664489|   -6.757600|    3.397207|
|         170|  3.4020e+00|  1.3304e-18|  3.4748e-03|  1.0000e-03|  1.0000e-03|  1.0000e-03|   -4.459621|   -4.731066|   -5.095482|   -5.095462|   -4.664445|   -6.772004|    3.397131|
|         171|  3.4017e+00|  1.3304e-18|  3.4748e-03|  1.0000e-03|  1.0000e-03|  1.0000e-03|   -4.459585|   -4.731078|   -5.095458|   -5.095438|   -4.664402|   -6.785153|    3.397054|
|         172|  3.4013e+00|  1.3304e-18|  3.4748e-03|  1.0000e-03|  1.0000e-03|  1.0000e-03|   -4.459549|   -4.731090|   -5.095433|   -5.095413|   -4.664358|   -6.793899|    3.396977|
|         173|  3.4008e+00|  1.3304e-18|  3.4748e-03|  1.0000e-03|  1.0000e-03|  1.0000e-03|   -4.459512|   -4.731103|   -5.095409|   -5.095389|   -4.664315|   -6.806362|    3.396901|
|         174|  3.4002e+00|  1.3304e-18|  3.4748e-03|  1.0000e-03|  1.0000e-03|  1.0000e-03|   -4.459476|   -4.731115|   -5.095385|   -5.095365|   -4.664271|   -6.814041|    3.396824|
|         175|  3.3995e+00|  1.3304e-18|  3.4748e-03|  1.0000e-03|  1.0000e-03|  1.0000e-03|   -4.459439|   -4.731127|   -5.095360|   -5.095341|   -4.664228|   -6.820519|    3.396748|
|         176|  3.3989e+00|  1.3304e-18|  3.4748e-03|  1.0000e-03|  1.0000e-03|  1.0000e-03|   -4.459403|   -4.731139|   -5.095336|   -5.095316|   -4.664185|   -6.819083|    3.396671|
|         177|  3.3984e+00|  1.3304e-18|  3.4748e-03|  1.0000e-03|  1.0000e-03|  1.0000e-03|   -4.459367|   -4.731151|   -5.095312|   -5.095292|   -4.664141|   -6.828162|    3.396595|
|         178|  3.3978e+00|  1.3304e-18|  3.4748e-03|  1.0000e-03|  1.0000e-03|  1.0000e-03|   -4.459330|   -4.731162|   -5.095288|   -5.095268|   -4.664098|   -6.831699|    3.396518|
|         179|  3.3972e+00|  1.3304e-18|  3.4748e-03|  1.0000e-03|  1.0000e-03|  1.0000e-03|   -4.459294|   -4.731174|   -5.095263|   -5.095244|   -4.664054|   -6.835539|    3.396442|
|         180|  3.3966e+00|  1.3304e-18|  3.4748e-03|  1.0000e-03|  1.0000e-03|  1.0000e-03|   -4.459257|   -4.731186|   -5.095239|   -5.095219|   -4.664011|   -6.837560|    3.396365|
|         181|  3.3962e+00|  1.3304e-18|  3.4748e-03|  1.0000e-03|  1.0000e-03|  1.0000e-03|   -4.459221|   -4.731198|   -5.095215|   -5.095195|   -4.663967|   -6.840295|    3.396289|
|         182|  3.3958e+00|  1.3304e-18|  3.4748e-03|  1.0000e-03|  1.0000e-03|  1.0000e-03|   -4.459185|   -4.731210|   -5.095191|   -5.095171|   -4.663924|   -6.842197|    3.396212|
|         183|  3.3952e+00|  1.3304e-18|  3.4748e-03|  1.0000e-03|  1.0000e-03|  1.0000e-03|   -4.459148|   -4.731222|   -5.095166|   -5.095147|   -4.663880|   -6.840044|    3.396136|
|         184|  3.3945e+00|  1.3304e-18|  3.4748e-03|  1.0000e-03|  1.0000e-03|  1.0000e-03|   -4.459112|   -4.731234|   -5.095142|   -5.095122|   -4.663837|   -6.845131|    3.396059|
|         185|  3.3938e+00|  1.3304e-18|  3.4748e-03|  1.0000e-03|  1.0000e-03|  1.0000e-03|   -4.459076|   -4.731246|   -5.095118|   -5.095098|   -4.663794|   -6.846322|    3.395983|
|         186|  3.3932e+00|  1.3304e-18|  3.4748e-03|  1.0000e-03|  1.0000e-03|  1.0000e-03|   -4.459040|   -4.731258|   -5.095093|   -5.095074|   -4.663750|   -6.847588|    3.395907|
|         187|  3.3927e+00|  1.3304e-18|  3.4748e-03|  1.0000e-03|  1.0000e-03|  1.0000e-03|   -4.459003|   -4.731270|   -5.095069|   -5.095050|   -4.663707|   -6.848474|    3.395830|
|         188|  3.3922e+00|  1.3304e-18|  3.4748e-03|  1.0000e-03|  1.0000e-03|  1.0000e-03|   -4.458967|   -4.731281|   -5.095045|   -5.095026|   -4.663663|   -6.849411|    3.395754|
|         189|  3.3916e+00|  1.3304e-18|  3.4748e-03|  1.0000e-03|  1.0000e-03|  1.0000e-03|   -4.458931|   -4.731293|   -5.095021|   -5.095001|   -4.663620|   -6.849719|    3.395678|
|         190|  3.3910e+00|  1.3304e-18|  3.4748e-03|  1.0000e-03|  1.0000e-03|  1.0000e-03|   -4.458894|   -4.731305|   -5.094996|   -5.094977|   -4.663577|   -6.850637|    3.395601|
|         191|  3.3902e+00|  1.3304e-18|  3.4748e-03|  1.0000e-03|  1.0000e-03|  1.0000e-03|   -4.458858|   -4.731317|   -5.094972|   -5.094953|   -4.663533|   -6.851238|    3.395525|
|         192|  3.3900e+00|  1.3304e-18|  3.4748e-03|  1.0000e-03|  1.0000e-03|  1.0000e-03|   -4.458822|   -4.731329|   -5.094948|   -5.094929|   -4.663490|   -6.851434|    3.395449|
|         193|  3.3893e+00|  1.3304e-18|  3.4748e-03|  1.0000e-03|  1.0000e-03|  1.0000e-03|   -4.458786|   -4.731340|   -5.094924|   -5.094904|   -4.663447|   -6.843083|    3.395373|
|         194|  3.3887e+00|  1.3304e-18|  3.4748e-03|  1.0000e-03|  1.0000e-03|  1.0000e-03|   -4.458749|   -4.731352|   -5.094899|   -5.094880|   -4.663403|   -6.815683|    3.395296|
|         195|  3.3884e+00|  1.3304e-18|  3.4748e-03|  1.0000e-03|  1.0000e-03|  1.0000e-03|   -4.458713|   -4.731364|   -5.094875|   -5.094856|   -4.663360|   -6.848154|    3.395220|
|         196|  3.3878e+00|  1.3304e-18|  3.4748e-03|  1.0000e-03|  1.0000e-03|  1.0000e-03|   -4.458677|   -4.731376|   -5.094851|   -5.094832|   -4.663316|   -6.848791|    3.395144|
|         197|  3.3873e+00|  1.3304e-18|  3.4748e-03|  1.0000e-03|  1.0000e-03|  1.0000e-03|   -4.458641|   -4.731387|   -5.094827|   -5.094807|   -4.663273|   -6.849052|    3.395068|
|         198|  3.3866e+00|  1.3304e-18|  3.4748e-03|  1.0000e-03|  1.0000e-03|  1.0000e-03|   -4.458605|   -4.731399|   -5.094802|   -5.094783|   -4.663230|   -6.849759|    3.394992|
|         199|  3.3860e+00|  1.3304e-18|  3.4748e-03|  1.0000e-03|  1.0000e-03|  1.0000e-03|   -4.458568|   -4.731411|   -5.094778|   -5.094759|   -4.663186|   -6.850276|    3.394915|
|         200|  3.3856e+00|  1.3304e-18|  3.4748e-03|  1.0000e-03|  1.0000e-03|  1.0000e-03|   -4.458532|   -4.731423|   -5.094754|   -5.094735|   -4.663143|   -6.849968|    3.394839|
|         201|  3.3855e+00|  1.3304e-18|  3.4748e-03|  1.0000e-03|  1.0000e-03|  1.0000e-03|   -4.458496|   -4.731434|   -5.094730|   -5.094711|   -4.663100|   -6.850864|    3.394763|
|         202|  3.3854e+00|  1.3304e-18|  3.4748e-03|  1.0000e-03|  1.0000e-03|  1.0000e-03|   -4.458460|   -4.731446|   -5.094705|   -5.094686|   -4.663056|   -6.851500|    3.394687|
|         203|  3.3852e+00|  1.3304e-18|  3.4748e-03|  1.0000e-03|  1.0000e-03|  1.0000e-03|   -4.458424|   -4.731458|   -5.094681|   -5.094662|   -4.663013|   -6.851963|    3.394611|
|         204|  3.3850e+00|  1.3304e-18|  3.4748e-03|  1.0000e-03|  1.0000e-03|  1.0000e-03|   -4.458387|   -4.731469|   -5.094657|   -5.094638|   -4.662970|   -6.852676|    3.394535|
|         205|  3.3847e+00|  1.3304e-18|  3.4748e-03|  1.0000e-03|  1.0000e-03|  1.0000e-03|   -4.458351|   -4.731481|   -5.094633|   -5.094614|   -4.662927|   -6.852633|    3.394459|
|         206|  3.3844e+00|  1.3304e-18|  3.4748e-03|  1.0000e-03|  1.0000e-03|  1.0000e-03|   -4.458315|   -4.731492|   -5.094608|   -5.094589|   -4.662883|   -6.853764|    3.394383|
|         207|  3.3840e+00|  1.3304e-18|  3.4748e-03|  1.0000e-03|  1.0000e-03|  1.0000e-03|   -4.458279|   -4.731504|   -5.094584|   -5.094565|   -4.662840|   -6.854177|    3.394307|
|         208|  3.3837e+00|  1.3304e-18|  3.4748e-03|  1.0000e-03|  1.0000e-03|  1.0000e-03|   -4.458243|   -4.731516|   -5.094560|   -5.094541|   -4.662797|   -6.854499|    3.394231|
|         209|  3.3832e+00|  1.3304e-18|  3.4748e-03|  1.0000e-03|  1.0000e-03|  1.0000e-03|   -4.458207|   -4.731527|   -5.094536|   -5.094517|   -4.662753|   -6.854755|    3.394155|
|         210|  3.3827e+00|  1.3304e-18|  3.4748e-03|  1.0000e-03|  1.0000e-03|  1.0000e-03|   -4.458171|   -4.731539|   -5.094511|   -5.094493|   -4.662710|   -6.853339|    3.394079|
|         211|  3.3823e+00|  1.3304e-18|  3.4748e-03|  1.0000e-03|  1.0000e-03|  1.0000e-03|   -4.458135|   -4.731550|   -5.094487|   -5.094468|   -4.662667|   -6.853672|    3.394003|
|         212|  3.3818e+00|  1.3304e-18|  3.4748e-03|  1.0000e-03|  1.0000e-03|  1.0000e-03|   -4.458099|   -4.731562|   -5.094463|   -5.094444|   -4.662624|   -6.853625|    3.393927|
|         213|  3.3813e+00|  1.3304e-18|  3.4748e-03|  1.0000e-03|  1.0000e-03|  1.0000e-03|   -4.458062|   -4.731573|   -5.094439|   -5.094420|   -4.662580|   -6.853659|    3.393851|
|         214|  3.3808e+00|  1.3304e-18|  3.4748e-03|  1.0000e-03|  1.0000e-03|  1.0000e-03|   -4.458026|   -4.731585|   -5.094414|   -5.094396|   -4.662537|   -6.854130|    3.393776|
|         215|  3.3803e+00|  1.3304e-18|  3.4748e-03|  1.0000e-03|  1.0000e-03|  1.0000e-03|   -4.457990|   -4.731596|   -5.094390|   -5.094371|   -4.662494|   -6.854593|    3.393700|
|         216|  3.3800e+00|  1.3304e-18|  3.4748e-03|  1.0000e-03|  1.0000e-03|  1.0000e-03|   -4.457954|   -4.731608|   -5.094366|   -5.094347|   -4.662451|   -6.855045|    3.393624|
|         217|  3.3795e+00|  1.3304e-18|  3.4748e-03|  1.0000e-03|  1.0000e-03|  1.0000e-03|   -4.457918|   -4.731619|   -5.094342|   -5.094323|   -4.662407|   -6.855477|    3.393548|
|         218|  3.3789e+00|  1.3304e-18|  3.4748e-03|  1.0000e-03|  1.0000e-03|  1.0000e-03|   -4.457882|   -4.731631|   -5.094317|   -5.094299|   -4.662364|   -6.855862|    3.393472|
|         219|  3.3786e+00|  1.3304e-18|  3.4748e-03|  1.0000e-03|  1.0000e-03|  1.0000e-03|   -4.457846|   -4.731642|   -5.094293|   -5.094275|   -4.662321|   -6.855532|    3.393396|
|         220|  3.3781e+00|  1.3304e-18|  3.4748e-03|  1.0000e-03|  1.0000e-03|  1.0000e-03|   -4.457810|   -4.731654|   -5.094269|   -5.094250|   -4.662278|   -6.855863|    3.393321|
|         221|  3.3777e+00|  1.3304e-18|  3.4748e-03|  1.0000e-03|  1.0000e-03|  1.0000e-03|   -4.457774|   -4.731665|   -5.094245|   -5.094226|   -4.662235|   -6.856143|    3.393245|
|         222|  3.3772e+00|  1.3304e-18|  3.4748e-03|  1.0000e-03|  1.0000e-03|  1.0000e-03|   -4.457738|   -4.731676|   -5.094220|   -5.094202|   -4.662191|   -6.855924|    3.393169|
|         223|  3.3767e+00|  1.3304e-18|  3.4748e-03|  1.0000e-03|  1.0000e-03|  1.0000e-03|   -4.457702|   -4.731688|   -5.094196|   -5.094178|   -4.662148|   -6.855502|    3.393094|
|         224|  3.3762e+00|  1.3304e-18|  3.4748e-03|  1.0000e-03|  1.0000e-03|  1.0000e-03|   -4.457666|   -4.731699|   -5.094172|   -5.094154|   -4.662105|   -6.855999|    3.393018|
|         225|  3.3757e+00|  1.3304e-18|  3.4748e-03|  1.0000e-03|  1.0000e-03|  1.0000e-03|   -4.457630|   -4.731710|   -5.094148|   -5.094129|   -4.662062|   -6.856439|    3.392942|
|         226|  3.3752e+00|  1.3304e-18|  3.4748e-03|  1.0000e-03|  1.0000e-03|  1.0000e-03|   -4.457594|   -4.731722|   -5.094123|   -5.094105|   -4.662019|   -6.856890|    3.392867|
|         227|  3.3749e+00|  1.3304e-18|  3.4748e-03|  1.0000e-03|  1.0000e-03|  1.0000e-03|   -4.457558|   -4.731733|   -5.094099|   -5.094081|   -4.661975|   -6.856418|    3.392791|
|         228|  3.3744e+00|  1.3304e-18|  3.4748e-03|  1.0000e-03|  1.0000e-03|  1.0000e-03|   -4.457522|   -4.731744|   -5.094075|   -5.094057|   -4.661932|   -6.857223|    3.392715|
|         229|  3.3739e+00|  1.3304e-18|  3.4748e-03|  1.0000e-03|  1.0000e-03|  1.0000e-03|   -4.457486|   -4.731756|   -5.094051|   -5.094033|   -4.661889|   -6.857655|    3.392640|
|         230|  3.3734e+00|  1.3304e-18|  3.4748e-03|  1.0000e-03|  1.0000e-03|  1.0000e-03|   -4.457451|   -4.731767|   -5.094027|   -5.094008|   -4.661846|   -6.857890|    3.392564|
|         231|  3.3729e+00|  1.3304e-18|  3.4748e-03|  1.0000e-03|  1.0000e-03|  1.0000e-03|   -4.457415|   -4.731778|   -5.094002|   -5.093984|   -4.661803|   -6.858551|    3.392489|
|         232|  3.3725e+00|  1.3304e-18|  3.4748e-03|  1.0000e-03|  1.0000e-03|  1.0000e-03|   -4.457379|   -4.731790|   -5.093978|   -5.093960|   -4.661760|   -6.858934|    3.392413|
|         233|  3.3720e+00|  1.3304e-18|  3.4748e-03|  1.0000e-03|  1.0000e-03|  1.0000e-03|   -4.457343|   -4.731801|   -5.093954|   -5.093936|   -4.661717|   -6.859391|    3.392337|
|         234|  3.3716e+00|  1.3304e-18|  3.4748e-03|  1.0000e-03|  1.0000e-03|  1.0000e-03|   -4.457307|   -4.731812|   -5.093930|   -5.093912|   -4.661673|   -6.859841|    3.392262|
|         235|  3.3713e+00|  1.3304e-18|  3.4748e-03|  1.0000e-03|  1.0000e-03|  1.0000e-03|   -4.457271|   -4.731823|   -5.093905|   -5.093887|   -4.661630|   -6.860298|    3.392187|
|         236|  3.3708e+00|  1.3304e-18|  3.4748e-03|  1.0000e-03|  1.0000e-03|  1.0000e-03|   -4.457235|   -4.731834|   -5.093881|   -5.093863|   -4.661587|   -6.860271|    3.392111|
|         237|  3.3706e+00|  1.3304e-18|  3.4748e-03|  1.0000e-03|  1.0000e-03|  1.0000e-03|   -4.457199|   -4.731846|   -5.093857|   -5.093839|   -4.661544|   -6.860964|    3.392036|
|         238|  3.3702e+00|  1.3304e-18|  3.4748e-03|  1.0000e-03|  1.0000e-03|  1.0000e-03|   -4.457164|   -4.731857|   -5.093833|   -5.093815|   -4.661501|   -6.861413|    3.391960|
|         239|  3.3698e+00|  1.3304e-18|  3.4748e-03|  1.0000e-03|  1.0000e-03|  1.0000e-03|   -4.457128|   -4.731868|   -5.093809|   -5.093791|   -4.661458|   -6.861623|    3.391885|
|         240|  3.3695e+00|  1.3304e-18|  3.4748e-03|  1.0000e-03|  1.0000e-03|  1.0000e-03|   -4.457092|   -4.731879|   -5.093784|   -5.093766|   -4.661415|   -6.862035|    3.391809|
|         241|  3.3692e+00|  1.3304e-18|  3.4748e-03|  1.0000e-03|  1.0000e-03|  1.0000e-03|   -4.457056|   -4.731890|   -5.093760|   -5.093742|   -4.661372|   -6.862156|    3.391734|
|         242|  3.3688e+00|  1.3304e-18|  3.4748e-03|  1.0000e-03|  1.0000e-03|  1.0000e-03|   -4.457020|   -4.731901|   -5.093736|   -5.093718|   -4.661329|   -6.862626|    3.391659|
|         243|  3.3687e+00|  1.3304e-18|  3.4748e-03|  1.0000e-03|  1.0000e-03|  1.0000e-03|   -4.456984|   -4.731913|   -5.093712|   -5.093694|   -4.661286|   -6.862663|    3.391583|
|         244|  3.3683e+00|  1.3304e-18|  3.4748e-03|  1.0000e-03|  1.0000e-03|  1.0000e-03|   -4.456949|   -4.731924|   -5.093688|   -5.093670|   -4.661243|   -6.862926|    3.391508|
|         245|  3.3678e+00|  1.3304e-18|  3.4748e-03|  1.0000e-03|  1.0000e-03|  1.0000e-03|   -4.456913|   -4.731935|   -5.093663|   -5.093646|   -4.661200|   -6.863339|    3.391433|
|         246|  3.3675e+00|  1.3304e-18|  3.4748e-03|  1.0000e-03|  1.0000e-03|  1.0000e-03|   -4.456877|   -4.731946|   -5.093639|   -5.093621|   -4.661157|   -6.863741|    3.391357|
|         247|  3.3670e+00|  1.3304e-18|  3.4748e-03|  1.0000e-03|  1.0000e-03|  1.0000e-03|   -4.456841|   -4.731957|   -5.093615|   -5.093597|   -4.661114|   -6.864235|    3.391282|
|         248|  3.3666e+00|  1.3304e-18|  3.4748e-03|  1.0000e-03|  1.0000e-03|  1.0000e-03|   -4.456806|   -4.731968|   -5.093591|   -5.093573|   -4.661071|   -6.864579|    3.391207|
|         249|  3.3661e+00|  1.3304e-18|  3.4748e-03|  1.0000e-03|  1.0000e-03|  1.0000e-03|   -4.456770|   -4.731979|   -5.093567|   -5.093549|   -4.661028|   -6.865037|    3.391132|
|         250|  3.3657e+00|  1.3304e-18|  3.4748e-03|  1.0000e-03|  1.0000e-03|  1.0000e-03|   -4.456734|   -4.731990|   -5.093542|   -5.093525|   -4.660985|   -6.865481|    3.391056|
|         251|  3.3653e+00|  1.3304e-18|  3.4748e-03|  1.0000e-03|  1.0000e-03|  1.0000e-03|   -4.456698|   -4.732001|   -5.093518|   -5.093500|   -4.660942|   -6.865916|    3.390981|
|         252|  3.3649e+00|  1.3304e-18|  3.4748e-03|  1.0000e-03|  1.0000e-03|  1.0000e-03|   -4.456663|   -4.732012|   -5.093494|   -5.093476|   -4.660899|   -6.866338|    3.390906|
|         253|  3.3644e+00|  1.3304e-18|  3.4748e-03|  1.0000e-03|  1.0000e-03|  1.0000e-03|   -4.456627|   -4.732023|   -5.093470|   -5.093452|   -4.660856|   -6.866720|    3.390831|
|         254|  3.3640e+00|  1.3304e-18|  3.4748e-03|  1.0000e-03|  1.0000e-03|  1.0000e-03|   -4.456591|   -4.732034|   -5.093446|   -5.093428|   -4.660813|   -6.867054|    3.390756|
|         255|  3.3637e+00|  1.3304e-18|  3.4748e-03|  1.0000e-03|  1.0000e-03|  1.0000e-03|   -4.456556|   -4.732045|   -5.093421|   -5.093404|   -4.660770|   -6.867476|    3.390681|
|         256|  3.3632e+00|  1.3304e-18|  3.4748e-03|  1.0000e-03|  1.0000e-03|  1.0000e-03|   -4.456520|   -4.732056|   -5.093397|   -5.093380|   -4.660727|   -6.867020|    3.390606|
|         257|  3.3628e+00|  1.3304e-18|  3.4748e-03|  1.0000e-03|  1.0000e-03|  1.0000e-03|   -4.456484|   -4.732067|   -5.093373|   -5.093356|   -4.660684|   -6.868237|    3.390530|
|         258|  3.3623e+00|  1.3304e-18|  3.4748e-03|  1.0000e-03|  1.0000e-03|  1.0000e-03|   -4.456449|   -4.732078|   -5.093349|   -5.093331|   -4.660641|   -6.868636|    3.390455|
|         259|  3.3618e+00|  1.3304e-18|  3.4748e-03|  1.0000e-03|  1.0000e-03|  1.0000e-03|   -4.456413|   -4.732088|   -5.093325|   -5.093307|   -4.660598|   -6.844519|    3.390380|
|         260|  3.3615e+00|  1.3304e-18|  3.4748e-03|  1.0000e-03|  1.0000e-03|  1.0000e-03|   -4.456377|   -4.732099|   -5.093301|   -5.093283|   -4.660555|   -6.868789|    3.390305|
|         261|  3.3611e+00|  1.3304e-18|  3.4748e-03|  1.0000e-03|  1.0000e-03|  1.0000e-03|   -4.456342|   -4.732110|   -5.093276|   -5.093259|   -4.660512|   -6.869092|    3.390230|
|         262|  3.3607e+00|  1.3304e-18|  3.4748e-03|  1.0000e-03|  1.0000e-03|  1.0000e-03|   -4.456306|   -4.732121|   -5.093252|   -5.093235|   -4.660469|   -6.869565|    3.390155|
|         263|  3.3605e+00|  1.3304e-18|  3.4748e-03|  1.0000e-03|  1.0000e-03|  1.0000e-03|   -4.456271|   -4.732132|   -5.093228|   -5.093211|   -4.660426|   -6.869934|    3.390080|
|         264|  3.3600e+00|  1.3304e-18|  3.4748e-03|  1.0000e-03|  1.0000e-03|  1.0000e-03|   -4.456235|   -4.732143|   -5.093204|   -5.093186|   -4.660383|   -6.870351|    3.390005|
|         265|  3.3596e+00|  1.3304e-18|  3.4748e-03|  1.0000e-03|  1.0000e-03|  1.0000e-03|   -4.456199|   -4.732154|   -5.093180|   -5.093162|   -4.660340|   -6.870761|    3.389930|
|         266|  3.3592e+00|  1.3304e-18|  3.4748e-03|  1.0000e-03|  1.0000e-03|  1.0000e-03|   -4.456164|   -4.732164|   -5.093156|   -5.093138|   -4.660298|   -6.871191|    3.389856|
|         267|  3.3588e+00|  1.3304e-18|  3.4748e-03|  1.0000e-03|  1.0000e-03|  1.0000e-03|   -4.456128|   -4.732175|   -5.093131|   -5.093114|   -4.660255|   -6.871606|    3.389781|
|         268|  3.3584e+00|  1.3304e-18|  3.4748e-03|  1.0000e-03|  1.0000e-03|  1.0000e-03|   -4.456093|   -4.732186|   -5.093107|   -5.093090|   -4.660212|   -6.872004|    3.389706|
|         269|  3.3580e+00|  1.3304e-18|  3.4748e-03|  1.0000e-03|  1.0000e-03|  1.0000e-03|   -4.456057|   -4.732197|   -5.093083|   -5.093066|   -4.660169|   -6.871982|    3.389631|
|         270|  3.3575e+00|  1.3304e-18|  3.4748e-03|  1.0000e-03|  1.0000e-03|  1.0000e-03|   -4.456022|   -4.732207|   -5.093059|   -5.093042|   -4.660126|   -6.872694|    3.389556|
|         271|  3.3572e+00|  1.3304e-18|  3.4748e-03|  1.0000e-03|  1.0000e-03|  1.0000e-03|   -4.455986|   -4.732218|   -5.093035|   -5.093018|   -4.660083|   -6.873100|    3.389481|
|         272|  3.3570e+00|  1.3304e-18|  3.4748e-03|  1.0000e-03|  1.0000e-03|  1.0000e-03|   -4.455951|   -4.732229|   -5.093011|   -5.092993|   -4.660040|   -6.873486|    3.389406|
|         273|  3.3567e+00|  1.3304e-18|  3.4748e-03|  1.0000e-03|  1.0000e-03|  1.0000e-03|   -4.455915|   -4.732239|   -5.092986|   -5.092969|   -4.659998|   -6.873883|    3.389332|
|         274|  3.3565e+00|  1.3304e-18|  3.4748e-03|  1.0000e-03|  1.0000e-03|  1.0000e-03|   -4.455880|   -4.732250|   -5.092962|   -5.092945|   -4.659955|   -6.874287|    3.389257|
|         275|  3.3562e+00|  1.3304e-18|  3.4748e-03|  1.0000e-03|  1.0000e-03|  1.0000e-03|   -4.455844|   -4.732261|   -5.092938|   -5.092921|   -4.659912|   -6.874685|    3.389182|
|         276|  3.3559e+00|  1.3304e-18|  3.4748e-03|  1.0000e-03|  1.0000e-03|  1.0000e-03|   -4.455809|   -4.732271|   -5.092914|   -5.092897|   -4.659869|   -6.875082|    3.389107|
|         277|  3.3555e+00|  1.3304e-18|  3.4748e-03|  1.0000e-03|  1.0000e-03|  1.0000e-03|   -4.455773|   -4.732282|   -5.092890|   -5.092873|   -4.659826|   -6.875467|    3.389033|
|         278|  3.3551e+00|  1.3304e-18|  3.4748e-03|  1.0000e-03|  1.0000e-03|  1.0000e-03|   -4.455738|   -4.732293|   -5.092866|   -5.092849|   -4.659784|   -6.875785|    3.388958|
|         279|  3.3549e+00|  1.3304e-18|  3.4748e-03|  1.0000e-03|  1.0000e-03|  1.0000e-03|   -4.455702|   -4.732303|   -5.092842|   -5.092825|   -4.659741|   -6.876230|    3.388883|
|         280|  3.3546e+00|  1.3304e-18|  3.4748e-03|  1.0000e-03|  1.0000e-03|  1.0000e-03|   -4.455667|   -4.732314|   -5.092817|   -5.092800|   -4.659698|   -6.876622|    3.388809|
|         281|  3.3544e+00|  1.3304e-18|  3.4748e-03|  1.0000e-03|  1.0000e-03|  1.0000e-03|   -4.455631|   -4.732324|   -5.092793|   -5.092776|   -4.659655|   -6.877003|    3.388734|
|         282|  3.3540e+00|  1.3304e-18|  3.4748e-03|  1.0000e-03|  1.0000e-03|  1.0000e-03|   -4.455596|   -4.732335|   -5.092769|   -5.092752|   -4.659613|   -6.877391|    3.388659|
|         283|  3.3537e+00|  1.3304e-18|  3.4748e-03|  1.0000e-03|  1.0000e-03|  1.0000e-03|   -4.455561|   -4.732346|   -5.092745|   -5.092728|   -4.659570|   -6.877699|    3.388585|
|         284|  3.3537e+00|  1.3304e-18|  3.4748e-03|  1.0000e-03|  1.0000e-03|  1.0000e-03|   -4.455525|   -4.732356|   -5.092721|   -5.092704|   -4.659527|   -6.878145|    3.388510|
|         285|  3.3533e+00|  1.3304e-18|  3.4748e-03|  1.0000e-03|  1.0000e-03|  1.0000e-03|   -4.455490|   -4.732367|   -5.092697|   -5.092680|   -4.659484|   -6.878552|    3.388436|
|         286|  3.3531e+00|  1.3304e-18|  3.4748e-03|  1.0000e-03|  1.0000e-03|  1.0000e-03|   -4.455454|   -4.732377|   -5.092673|   -5.092656|   -4.659442|   -6.878772|    3.388361|
|         287|  3.3528e+00|  1.3304e-18|  3.4748e-03|  1.0000e-03|  1.0000e-03|  1.0000e-03|   -4.455419|   -4.732388|   -5.092648|   -5.092632|   -4.659399|   -6.879175|    3.388287|
|         288|  3.3525e+00|  1.3304e-18|  3.4748e-03|  1.0000e-03|  1.0000e-03|  1.0000e-03|   -4.455384|   -4.732398|   -5.092624|   -5.092608|   -4.659356|   -6.879562|    3.388212|
|         289|  3.3523e+00|  1.3304e-18|  3.4748e-03|  1.0000e-03|  1.0000e-03|  1.0000e-03|   -4.455348|   -4.732409|   -5.092600|   -5.092583|   -4.659313|   -6.879950|    3.388138|
|         290|  3.3521e+00|  1.3304e-18|  3.4748e-03|  1.0000e-03|  1.0000e-03|  1.0000e-03|   -4.455313|   -4.732419|   -5.092576|   -5.092559|   -4.659271|   -6.880334|    3.388063|
|         291|  3.3518e+00|  1.3304e-18|  3.4748e-03|  1.0000e-03|  1.0000e-03|  1.0000e-03|   -4.455278|   -4.732429|   -5.092552|   -5.092535|   -4.659228|   -6.880719|    3.387989|
|         292|  3.3515e+00|  1.3304e-18|  3.4748e-03|  1.0000e-03|  1.0000e-03|  1.0000e-03|   -4.455242|   -4.732440|   -5.092528|   -5.092511|   -4.659185|   -6.881089|    3.387914|
|         293|  3.3511e+00|  1.3304e-18|  3.4748e-03|  1.0000e-03|  1.0000e-03|  1.0000e-03|   -4.455207|   -4.732450|   -5.092504|   -5.092487|   -4.659143|   -6.882176|    3.387840|
|         294|  3.3508e+00|  1.3304e-18|  3.4748e-03|  1.0000e-03|  1.0000e-03|  1.0000e-03|   -4.455172|   -4.732461|   -5.092480|   -5.092463|   -4.659100|   -6.876196|    3.387765|
|         295|  3.3505e+00|  1.3304e-18|  3.4748e-03|  1.0000e-03|  1.0000e-03|  1.0000e-03|   -4.455136|   -4.732471|   -5.092456|   -5.092439|   -4.659053|   -6.881996|    3.387691|
|         296|  3.3503e+00|  1.3304e-18|  3.4748e-03|  1.0000e-03|  1.0000e-03|  1.0000e-03|   -4.455101|   -4.732481|   -5.092431|   -5.092415|   -4.659011|   -6.881231|    3.387617|
|         297|  3.3500e+00|  1.3304e-18|  3.4748e-03|  1.0000e-03|  1.0000e-03|  1.0000e-03|   -4.455066|   -4.732492|   -5.092407|   -5.092391|   -4.658968|   -6.883247|    3.387542|
|         298|  3.3498e+00|  1.3304e-18|  3.4748e-03|  1.0000e-03|  1.0000e-03|  1.0000e-03|   -4.455031|   -4.732502|   -5.092383|   -5.092367|   -4.658925|   -6.883635|    3.387468|
|         299|  3.3495e+00|  1.3304e-18|  3.4748e-03|  1.0000e-03|  1.0000e-03|  1.0000e-03|   -4.454995|   -4.732512|   -5.092359|   -5.092342|   -4.658883|   -6.884011|    3.387394|
|         300|  3.3494e+00|  1.3304e-18|  3.4748e-03|  1.0000e-03|  1.0000e-03|  1.0000e-03|   -4.454960|   -4.732523|   -5.092335|   -5.092318|   -4.658840|   -6.883924|    3.387319|
+-----------------------------------------------------------------------+
|        File Writing Summary       |              Filename             |
+-----------------------------------------------------------------------+
|SU2 binary restart                 |restart_flow.dat                   |
|Paraview                           |flow.vtu                           |
|Paraview surface                   |surface_flow.vtu                   |
+-----------------------------------------------------------------------+
+-------------------------------------------------------------------------------------------------------------------------------------------------------------------------------------+
|  Inner_Iter|   Time(sec)|      Min DT|      Max DT|     Min CFL|     Max CFL|     Avg CFL|    rms[Rho]|   rms[RhoU]|   rms[RhoV]|   rms[RhoW]|   rms[RhoE]|     rms[nu]|          CD|
+-------------------------------------------------------------------------------------------------------------------------------------------------------------------------------------+
|         301|  3.3774e+00|  1.3304e-18|  3.4748e-03|  1.0000e-03|  1.0000e-03|  1.0000e-03|   -4.454925|   -4.732533|   -5.092311|   -5.092294|   -4.658797|   -6.884447|    3.387245|
|         302|  3.3778e+00|  1.3304e-18|  3.4748e-03|  1.0000e-03|  1.0000e-03|  1.0000e-03|   -4.454890|   -4.732543|   -5.092287|   -5.092270|   -4.658755|   -6.884836|    3.387171|
|         303|  3.3781e+00|  1.3304e-18|  3.4748e-03|  1.0000e-03|  1.0000e-03|  1.0000e-03|   -4.454855|   -4.732553|   -5.092263|   -5.092246|   -4.658712|   -6.885212|    3.387097|
|         304|  3.3787e+00|  1.3304e-18|  3.4748e-03|  1.0000e-03|  1.0000e-03|  1.0000e-03|   -4.454819|   -4.732564|   -5.092239|   -5.092222|   -4.658670|   -6.885597|    3.387022|
|         305|  3.3791e+00|  1.3304e-18|  3.4748e-03|  1.0000e-03|  1.0000e-03|  1.0000e-03|   -4.454784|   -4.732574|   -5.092214|   -5.092198|   -4.658627|   -6.873528|    3.386948|
|         306|  3.3795e+00|  1.3304e-18|  3.4748e-03|  1.0000e-03|  1.0000e-03|  1.0000e-03|   -4.454749|   -4.732584|   -5.092190|   -5.092174|   -4.658585|   -6.874930|    3.386874|
|         307|  3.3797e+00|  1.3304e-18|  3.4748e-03|  1.0000e-03|  1.0000e-03|  1.0000e-03|   -4.454714|   -4.732594|   -5.092166|   -5.092150|   -4.658542|   -6.875874|    3.386800|
|         308|  3.3798e+00|  1.3304e-18|  3.4748e-03|  1.0000e-03|  1.0000e-03|  1.0000e-03|   -4.454679|   -4.732604|   -5.092142|   -5.092126|   -4.658500|   -6.861096|    3.386726|
|         309|  3.3799e+00|  1.3304e-18|  3.4748e-03|  1.0000e-03|  1.0000e-03|  1.0000e-03|   -4.454644|   -4.732615|   -5.092118|   -5.092102|   -4.658457|   -6.870817|    3.386652|
|         310|  3.3800e+00|  1.3304e-18|  3.4748e-03|  1.0000e-03|  1.0000e-03|  1.0000e-03|   -4.454608|   -4.732625|   -5.092094|   -5.092078|   -4.658414|   -6.873594|    3.386577|
|         311|  3.3802e+00|  1.3304e-18|  3.4748e-03|  1.0000e-03|  1.0000e-03|  1.0000e-03|   -4.454573|   -4.732635|   -5.092070|   -5.092054|   -4.658372|   -6.875663|    3.386503|
|         312|  3.3805e+00|  1.3304e-18|  3.4748e-03|  1.0000e-03|  1.0000e-03|  1.0000e-03|   -4.454538|   -4.732645|   -5.092046|   -5.092030|   -4.658329|   -6.877358|    3.386429|
|         313|  3.3803e+00|  1.3304e-18|  3.4748e-03|  1.0000e-03|  1.0000e-03|  1.0000e-03|   -4.454503|   -4.732655|   -5.092022|   -5.092006|   -4.658287|   -6.878761|    3.386355|
|         314|  3.3802e+00|  1.3304e-18|  3.4748e-03|  1.0000e-03|  1.0000e-03|  1.0000e-03|   -4.454468|   -4.732665|   -5.091998|   -5.091982|   -4.658244|   -6.879107|    3.386281|
|         315|  3.3802e+00|  1.3304e-18|  3.4748e-03|  1.0000e-03|  1.0000e-03|  1.0000e-03|   -4.454433|   -4.732675|   -5.091974|   -5.091958|   -4.658202|   -6.880299|    3.386207|
|         316|  3.3803e+00|  1.3304e-18|  3.4748e-03|  1.0000e-03|  1.0000e-03|  1.0000e-03|   -4.454398|   -4.732685|   -5.091950|   -5.091933|   -4.658160|   -6.881319|    3.386133|
|         317|  3.3802e+00|  1.3304e-18|  3.4748e-03|  1.0000e-03|  1.0000e-03|  1.0000e-03|   -4.454363|   -4.732695|   -5.091926|   -5.091909|   -4.658117|   -6.882230|    3.386059|
|         318|  3.3802e+00|  1.3304e-18|  3.4748e-03|  1.0000e-03|  1.0000e-03|  1.0000e-03|   -4.454328|   -4.732706|   -5.091901|   -5.091885|   -4.658075|   -6.883117|    3.385985|
|         319|  3.3803e+00|  1.3304e-18|  3.4748e-03|  1.0000e-03|  1.0000e-03|  1.0000e-03|   -4.454293|   -4.732716|   -5.091877|   -5.091861|   -4.658032|   -6.883944|    3.385911|
|         320|  3.3803e+00|  1.3304e-18|  3.4748e-03|  1.0000e-03|  1.0000e-03|  1.0000e-03|   -4.454258|   -4.732726|   -5.091853|   -5.091837|   -4.657990|   -6.882858|    3.385838|
|         321|  3.3803e+00|  1.3304e-18|  3.4748e-03|  1.0000e-03|  1.0000e-03|  1.0000e-03|   -4.454223|   -4.732736|   -5.091829|   -5.091813|   -4.657947|   -6.885330|    3.385764|
|         322|  3.3803e+00|  1.3304e-18|  3.4748e-03|  1.0000e-03|  1.0000e-03|  1.0000e-03|   -4.454188|   -4.732746|   -5.091805|   -5.091789|   -4.657905|   -6.886053|    3.385690|
|         323|  3.3800e+00|  1.3304e-18|  3.4748e-03|  1.0000e-03|  1.0000e-03|  1.0000e-03|   -4.454153|   -4.732756|   -5.091781|   -5.091765|   -4.657862|   -6.886787|    3.385616|
|         324|  3.3799e+00|  1.3304e-18|  3.4748e-03|  1.0000e-03|  1.0000e-03|  1.0000e-03|   -4.454118|   -4.732765|   -5.091757|   -5.091741|   -4.657820|   -6.887465|    3.385542|
|         325|  3.3798e+00|  1.3304e-18|  3.4748e-03|  1.0000e-03|  1.0000e-03|  1.0000e-03|   -4.454083|   -4.732775|   -5.091733|   -5.091717|   -4.657778|   -6.888121|    3.385468|
|         326|  3.3797e+00|  1.3304e-18|  3.4748e-03|  1.0000e-03|  1.0000e-03|  1.0000e-03|   -4.454048|   -4.732785|   -5.091709|   -5.091693|   -4.657735|   -6.888746|    3.385394|
|         327|  3.3795e+00|  1.3304e-18|  3.4748e-03|  1.0000e-03|  1.0000e-03|  1.0000e-03|   -4.454013|   -4.732795|   -5.091685|   -5.091669|   -4.657693|   -6.889352|    3.385321|
|         328|  3.3792e+00|  1.3304e-18|  3.4748e-03|  1.0000e-03|  1.0000e-03|  1.0000e-03|   -4.453978|   -4.732805|   -5.091661|   -5.091645|   -4.657650|   -6.887468|    3.385247|
|         329|  3.3789e+00|  1.3304e-18|  3.4748e-03|  1.0000e-03|  1.0000e-03|  1.0000e-03|   -4.453943|   -4.732815|   -5.091637|   -5.091621|   -4.657608|   -6.889752|    3.385173|
|         330|  3.3787e+00|  1.3304e-18|  3.4748e-03|  1.0000e-03|  1.0000e-03|  1.0000e-03|   -4.453908|   -4.732825|   -5.091613|   -5.091597|   -4.657566|   -6.890334|    3.385099|
|         331|  3.3785e+00|  1.3304e-18|  3.4748e-03|  1.0000e-03|  1.0000e-03|  1.0000e-03|   -4.453873|   -4.732835|   -5.091589|   -5.091573|   -4.657523|   -6.890926|    3.385026|
|         332|  3.3783e+00|  1.3304e-18|  3.4748e-03|  1.0000e-03|  1.0000e-03|  1.0000e-03|   -4.453838|   -4.732845|   -5.091565|   -5.091549|   -4.657481|   -6.891470|    3.384952|
|         333|  3.3781e+00|  1.3304e-18|  3.4748e-03|  1.0000e-03|  1.0000e-03|  1.0000e-03|   -4.453804|   -4.732854|   -5.091541|   -5.091525|   -4.657439|   -6.892040|    3.384878|
|         334|  3.3779e+00|  1.3304e-18|  3.4748e-03|  1.0000e-03|  1.0000e-03|  1.0000e-03|   -4.453769|   -4.732864|   -5.091517|   -5.091501|   -4.657396|   -6.892559|    3.384805|
|         335|  3.3777e+00|  1.3304e-18|  3.4748e-03|  1.0000e-03|  1.0000e-03|  1.0000e-03|   -4.453734|   -4.732874|   -5.091493|   -5.091477|   -4.657354|   -6.893018|    3.384731|
|         336|  3.3775e+00|  1.3304e-18|  3.4748e-03|  1.0000e-03|  1.0000e-03|  1.0000e-03|   -4.453699|   -4.732884|   -5.091469|   -5.091453|   -4.657312|   -6.893454|    3.384657|
|         337|  3.3773e+00|  1.3304e-18|  3.4748e-03|  1.0000e-03|  1.0000e-03|  1.0000e-03|   -4.453664|   -4.732893|   -5.091445|   -5.091429|   -4.657270|   -6.893807|    3.384584|
|         338|  3.3771e+00|  1.3304e-18|  3.4748e-03|  1.0000e-03|  1.0000e-03|  1.0000e-03|   -4.453629|   -4.732903|   -5.091421|   -5.091405|   -4.657227|   -6.893906|    3.384510|
|         339|  3.3769e+00|  1.3304e-18|  3.4748e-03|  1.0000e-03|  1.0000e-03|  1.0000e-03|   -4.453594|   -4.732913|   -5.091397|   -5.091381|   -4.657185|   -6.894292|    3.384437|
|         340|  3.3766e+00|  1.3304e-18|  3.4748e-03|  1.0000e-03|  1.0000e-03|  1.0000e-03|   -4.453560|   -4.732923|   -5.091373|   -5.091357|   -4.657143|   -6.894734|    3.384363|
|         341|  3.3763e+00|  1.3304e-18|  3.4748e-03|  1.0000e-03|  1.0000e-03|  1.0000e-03|   -4.453525|   -4.732932|   -5.091349|   -5.091333|   -4.657101|   -6.895288|    3.384290|
|         342|  3.3760e+00|  1.3304e-18|  3.4748e-03|  1.0000e-03|  1.0000e-03|  1.0000e-03|   -4.453490|   -4.732942|   -5.091325|   -5.091309|   -4.657058|   -6.895738|    3.384216|
|         343|  3.3758e+00|  1.3304e-18|  3.4748e-03|  1.0000e-03|  1.0000e-03|  1.0000e-03|   -4.453455|   -4.732952|   -5.091301|   -5.091285|   -4.657016|   -6.896202|    3.384143|
|         344|  3.3755e+00|  1.3304e-18|  3.4748e-03|  1.0000e-03|  1.0000e-03|  1.0000e-03|   -4.453421|   -4.732961|   -5.091277|   -5.091261|   -4.656974|   -6.896671|    3.384069|
|         345|  3.3753e+00|  1.3304e-18|  3.4748e-03|  1.0000e-03|  1.0000e-03|  1.0000e-03|   -4.453386|   -4.732971|   -5.091253|   -5.091237|   -4.656932|   -6.897090|    3.383996|
|         346|  3.3753e+00|  1.3304e-18|  3.4748e-03|  1.0000e-03|  1.0000e-03|  1.0000e-03|   -4.453351|   -4.732981|   -5.091229|   -5.091213|   -4.656889|   -6.897541|    3.383922|
|         347|  3.3754e+00|  1.3304e-18|  3.4748e-03|  1.0000e-03|  1.0000e-03|  1.0000e-03|   -4.453316|   -4.732990|   -5.091205|   -5.091189|   -4.656847|   -6.897954|    3.383849|
|         348|  3.3753e+00|  1.3304e-18|  3.4748e-03|  1.0000e-03|  1.0000e-03|  1.0000e-03|   -4.453282|   -4.733000|   -5.091181|   -5.091166|   -4.656805|   -6.898425|    3.383776|
|         349|  3.3752e+00|  1.3304e-18|  3.4748e-03|  1.0000e-03|  1.0000e-03|  1.0000e-03|   -4.453247|   -4.733009|   -5.091157|   -5.091142|   -4.656763|   -6.898880|    3.383702|
|         350|  3.3751e+00|  1.3304e-18|  3.4748e-03|  1.0000e-03|  1.0000e-03|  1.0000e-03|   -4.453212|   -4.733019|   -5.091133|   -5.091118|   -4.656721|   -6.899321|    3.383629|
[...]
|       15635|  2.7875e+00|  3.0376e-20|  3.4748e-03|  1.0000e-03|  1.0000e-03|  1.0000e-03|   -4.447285|   -4.739755|   -5.107982|   -5.108001|   -4.643555|   -5.896609|    3.878708|
|       15636|  2.7875e+00|  3.0377e-20|  3.4748e-03|  1.0000e-03|  1.0000e-03|  1.0000e-03|   -4.447270|   -4.739752|   -5.107978|   -5.107997|   -4.643539|   -5.896875|    3.878631|
|       15637|  2.7875e+00|  3.0378e-20|  3.4748e-03|  1.0000e-03|  1.0000e-03|  1.0000e-03|   -4.447255|   -4.739750|   -5.107975|   -5.107994|   -4.643523|   -5.897187|    3.878554|
|       15638|  2.7874e+00|  3.0379e-20|  3.4748e-03|  1.0000e-03|  1.0000e-03|  1.0000e-03|   -4.447240|   -4.739747|   -5.107972|   -5.107991|   -4.643506|   -5.895856|    3.878477|
|       15639|  2.7874e+00|  3.0380e-20|  3.4748e-03|  1.0000e-03|  1.0000e-03|  1.0000e-03|   -4.447224|   -4.739744|   -5.107969|   -5.107988|   -4.643490|   -5.897776|    3.878400|
|       15640|  2.7874e+00|  3.0381e-20|  3.4748e-03|  1.0000e-03|  1.0000e-03|  1.0000e-03|   -4.447209|   -4.739741|   -5.107966|   -5.107985|   -4.643474|   -5.897976|    3.878323|
|       15641|  2.7874e+00|  3.0382e-20|  3.4748e-03|  1.0000e-03|  1.0000e-03|  1.0000e-03|   -4.447194|   -4.739739|   -5.107963|   -5.107982|   -4.643457|   -5.896824|    3.878246|
|       15642|  2.7874e+00|  3.0383e-20|  3.4748e-03|  1.0000e-03|  1.0000e-03|  1.0000e-03|   -4.447179|   -4.739736|   -5.107960|   -5.107978|   -4.643441|   -5.898429|    3.878169|
|       15643|  2.7874e+00|  3.0383e-20|  3.4748e-03|  1.0000e-03|  1.0000e-03|  1.0000e-03|   -4.447164|   -4.739733|   -5.107956|   -5.107975|   -4.643425|   -5.898644|    3.878091|
|       15644|  2.7874e+00|  3.0384e-20|  3.4748e-03|  1.0000e-03|  1.0000e-03|  1.0000e-03|   -4.447149|   -4.739730|   -5.107953|   -5.107972|   -4.643409|   -5.898808|    3.878014|
|       15645|  2.7874e+00|  3.0385e-20|  3.4748e-03|  1.0000e-03|  1.0000e-03|  1.0000e-03|   -4.447134|   -4.739727|   -5.107950|   -5.107969|   -4.643393|   -5.898984|    3.877937|
|       15646|  2.7874e+00|  3.0386e-20|  3.4748e-03|  1.0000e-03|  1.0000e-03|  1.0000e-03|   -4.447119|   -4.739724|   -5.107947|   -5.107966|   -4.643377|   -5.898965|    3.877860|
|       15647|  2.7874e+00|  3.0387e-20|  3.4748e-03|  1.0000e-03|  1.0000e-03|  1.0000e-03|   -4.447105|   -4.739722|   -5.107944|   -5.107963|   -4.643361|   -5.899308|    3.877782|
|       15648|  2.7874e+00|  3.0388e-20|  3.4748e-03|  1.0000e-03|  1.0000e-03|  1.0000e-03|   -4.447090|   -4.739719|   -5.107941|   -5.107960|   -4.643345|   -5.899406|    3.877705|
|       15649|  2.7873e+00|  3.0389e-20|  3.4748e-03|  1.0000e-03|  1.0000e-03|  1.0000e-03|   -4.447075|   -4.739716|   -5.107938|   -5.107957|   -4.643329|   -5.899580|    3.877628|
|       15650|  2.7873e+00|  3.0390e-20|  3.4748e-03|  1.0000e-03|  1.0000e-03|  1.0000e-03|   -4.447060|   -4.739713|   -5.107936|   -5.107954|   -4.643313|   -5.899694|    3.877550|
|       15651|  2.7873e+00|  3.0391e-20|  3.4748e-03|  1.0000e-03|  1.0000e-03|  1.0000e-03|   -4.447045|   -4.739710|   -5.107933|   -5.107952|   -4.643297|   -5.899823|    3.877473|
|       15652|  2.7873e+00|  3.0392e-20|  3.4748e-03|  1.0000e-03|  1.0000e-03|  1.0000e-03|   -4.447031|   -4.739707|   -5.107930|   -5.107949|   -4.643281|   -5.899957|    3.877396|
|       15653|  2.7873e+00|  3.0392e-20|  3.4748e-03|  1.0000e-03|  1.0000e-03|  1.0000e-03|   -4.447016|   -4.739704|   -5.107927|   -5.107946|   -4.643265|   -5.900422|    3.877318|
|       15654|  2.7873e+00|  3.0393e-20|  3.4748e-03|  1.0000e-03|  1.0000e-03|  1.0000e-03|   -4.447001|   -4.739701|   -5.107924|   -5.107943|   -4.643250|   -5.900533|    3.877241|
|       15655|  2.7873e+00|  3.0394e-20|  3.4748e-03|  1.0000e-03|  1.0000e-03|  1.0000e-03|   -4.446987|   -4.739698|   -5.107921|   -5.107940|   -4.643234|   -5.900578|    3.877163|
|       15656|  2.7873e+00|  3.0395e-20|  3.4748e-03|  1.0000e-03|  1.0000e-03|  1.0000e-03|   -4.446972|   -4.739695|   -5.107918|   -5.107937|   -4.643218|   -5.900934|    3.877086|
|       15657|  2.7873e+00|  3.0396e-20|  3.4748e-03|  1.0000e-03|  1.0000e-03|  1.0000e-03|   -4.446958|   -4.739692|   -5.107916|   -5.107934|   -4.643202|   -5.901118|    3.877008|
|       15658|  2.7873e+00|  3.0397e-20|  3.4748e-03|  1.0000e-03|  1.0000e-03|  1.0000e-03|   -4.446943|   -4.739688|   -5.107913|   -5.107932|   -4.643187|   -5.901261|    3.876931|
|       15659|  2.7873e+00|  3.0398e-20|  3.4748e-03|  1.0000e-03|  1.0000e-03|  1.0000e-03|   -4.446929|   -4.739685|   -5.107910|   -5.107929|   -4.643171|   -5.901341|    3.876853|
|       15660|  2.7872e+00|  3.0399e-20|  3.4748e-03|  1.0000e-03|  1.0000e-03|  1.0000e-03|   -4.446914|   -4.739682|   -5.107907|   -5.107926|   -4.643156|   -5.902590|    3.876776|
|       15661|  2.7872e+00|  3.0400e-20|  3.4748e-03|  1.0000e-03|  1.0000e-03|  1.0000e-03|   -4.446900|   -4.739679|   -5.107905|   -5.107924|   -4.643140|   -5.900504|    3.876698|
|       15662|  2.7872e+00|  3.0401e-20|  3.4748e-03|  1.0000e-03|  1.0000e-03|  1.0000e-03|   -4.446885|   -4.739676|   -5.107902|   -5.107921|   -4.643125|   -5.900676|    3.876620|
|       15663|  2.7872e+00|  3.0402e-20|  3.4748e-03|  1.0000e-03|  1.0000e-03|  1.0000e-03|   -4.446871|   -4.739673|   -5.107899|   -5.107918|   -4.643109|   -5.901765|    3.876543|
|       15664|  2.7872e+00|  3.0402e-20|  3.4748e-03|  1.0000e-03|  1.0000e-03|  1.0000e-03|   -4.446857|   -4.739669|   -5.107897|   -5.107916|   -4.643094|   -5.901409|    3.876465|
|       15665|  2.7872e+00|  3.0403e-20|  3.4748e-03|  1.0000e-03|  1.0000e-03|  1.0000e-03|   -4.446842|   -4.739666|   -5.107894|   -5.107913|   -4.643079|   -5.901865|    3.876387|
|       15666|  2.7872e+00|  3.0404e-20|  3.4748e-03|  1.0000e-03|  1.0000e-03|  1.0000e-03|   -4.446828|   -4.739663|   -5.107892|   -5.107910|   -4.643063|   -5.902057|    3.876310|
|       15667|  2.7872e+00|  3.0405e-20|  3.4748e-03|  1.0000e-03|  1.0000e-03|  1.0000e-03|   -4.446814|   -4.739660|   -5.107889|   -5.107908|   -4.643048|   -5.902410|    3.876232|
|       15668|  2.7872e+00|  3.0406e-20|  3.4748e-03|  1.0000e-03|  1.0000e-03|  1.0000e-03|   -4.446800|   -4.739656|   -5.107886|   -5.107905|   -4.643033|   -5.902441|    3.876154|
|       15669|  2.7872e+00|  3.0407e-20|  3.4748e-03|  1.0000e-03|  1.0000e-03|  1.0000e-03|   -4.446785|   -4.739653|   -5.107884|   -5.107903|   -4.643018|   -5.903005|    3.876077|
|       15670|  2.7872e+00|  3.0408e-20|  3.4748e-03|  1.0000e-03|  1.0000e-03|  1.0000e-03|   -4.446771|   -4.739650|   -5.107881|   -5.107900|   -4.643003|   -5.903226|    3.875999|
|       15671|  2.7872e+00|  3.0409e-20|  3.4748e-03|  1.0000e-03|  1.0000e-03|  1.0000e-03|   -4.446757|   -4.739646|   -5.107879|   -5.107898|   -4.642987|   -5.903644|    3.875921|
|       15672|  2.7872e+00|  3.0410e-20|  3.4748e-03|  1.0000e-03|  1.0000e-03|  1.0000e-03|   -4.446743|   -4.739643|   -5.107876|   -5.107895|   -4.642972|   -5.903885|    3.875843|
|       15673|  2.7872e+00|  3.0411e-20|  3.4748e-03|  1.0000e-03|  1.0000e-03|  1.0000e-03|   -4.446729|   -4.739640|   -5.107874|   -5.107893|   -4.642957|   -5.904203|    3.875765|
|       15674|  2.7872e+00|  3.0412e-20|  3.4748e-03|  1.0000e-03|  1.0000e-03|  1.0000e-03|   -4.446715|   -4.739636|   -5.107871|   -5.107890|   -4.642942|   -5.904014|    3.875687|
|       15675|  2.7872e+00|  3.0412e-20|  3.4748e-03|  1.0000e-03|  1.0000e-03|  1.0000e-03|   -4.446701|   -4.739633|   -5.107869|   -5.107888|   -4.642927|   -5.905095|    3.875610|
|       15676|  2.7872e+00|  3.0413e-20|  3.4748e-03|  1.0000e-03|  1.0000e-03|  1.0000e-03|   -4.446687|   -4.739630|   -5.107867|   -5.107885|   -4.642913|   -5.905483|    3.875532|
|       15677|  2.7872e+00|  3.0414e-20|  3.4748e-03|  1.0000e-03|  1.0000e-03|  1.0000e-03|   -4.446673|   -4.739626|   -5.107864|   -5.107883|   -4.642898|   -5.904994|    3.875454|
|       15678|  2.7872e+00|  3.0415e-20|  3.4748e-03|  1.0000e-03|  1.0000e-03|  1.0000e-03|   -4.446659|   -4.739623|   -5.107862|   -5.107881|   -4.642883|   -5.906310|    3.875376|
|       15679|  2.7872e+00|  3.0416e-20|  3.4748e-03|  1.0000e-03|  1.0000e-03|  1.0000e-03|   -4.446646|   -4.739619|   -5.107860|   -5.107878|   -4.642868|   -5.906794|    3.875298|
|       15680|  2.7872e+00|  3.0417e-20|  3.4748e-03|  1.0000e-03|  1.0000e-03|  1.0000e-03|   -4.446632|   -4.739616|   -5.107857|   -5.107876|   -4.642853|   -5.907183|    3.875220|
|       15681|  2.7872e+00|  3.0418e-20|  3.4748e-03|  1.0000e-03|  1.0000e-03|  1.0000e-03|   -4.446618|   -4.739612|   -5.107855|   -5.107874|   -4.642839|   -5.907485|    3.875142|
|       15682|  2.7872e+00|  3.0419e-20|  3.4748e-03|  1.0000e-03|  1.0000e-03|  1.0000e-03|   -4.446604|   -4.739609|   -5.107853|   -5.107871|   -4.642824|   -5.842443|    3.875064|
|       15683|  2.7871e+00|  3.0420e-20|  3.4748e-03|  1.0000e-03|  1.0000e-03|  1.0000e-03|   -4.446591|   -4.739605|   -5.107850|   -5.107869|   -4.642809|   -5.908436|    3.874986|
|       15684|  2.7871e+00|  3.0421e-20|  3.4748e-03|  1.0000e-03|  1.0000e-03|  1.0000e-03|   -4.446577|   -4.739601|   -5.107848|   -5.107867|   -4.642795|   -5.908820|    3.874908|
|       15685|  2.7871e+00|  3.0422e-20|  3.4748e-03|  1.0000e-03|  1.0000e-03|  1.0000e-03|   -4.446563|   -4.739598|   -5.107846|   -5.107865|   -4.642780|   -5.909315|    3.874830|
|       15686|  2.7871e+00|  3.0422e-20|  3.4748e-03|  1.0000e-03|  1.0000e-03|  1.0000e-03|   -4.446550|   -4.739594|   -5.107844|   -5.107862|   -4.642765|   -5.909680|    3.874751|
|       15687|  2.7871e+00|  3.0423e-20|  3.4748e-03|  1.0000e-03|  1.0000e-03|  1.0000e-03|   -4.446536|   -4.739591|   -5.107842|   -5.107860|   -4.642751|   -5.907744|    3.874673|
|       15688|  2.7871e+00|  3.0424e-20|  3.4748e-03|  1.0000e-03|  1.0000e-03|  1.0000e-03|   -4.446522|   -4.739587|   -5.107839|   -5.107858|   -4.642736|   -5.909708|    3.874595|
|       15689|  2.7871e+00|  3.0425e-20|  3.4748e-03|  1.0000e-03|  1.0000e-03|  1.0000e-03|   -4.446509|   -4.739583|   -5.107837|   -5.107856|   -4.642722|   -5.870750|    3.874517|
|       15690|  2.7871e+00|  3.0426e-20|  3.4748e-03|  1.0000e-03|  1.0000e-03|  1.0000e-03|   -4.446495|   -4.739580|   -5.107835|   -5.107854|   -4.642708|   -5.893663|    3.874439|
|       15691|  2.7870e+00|  3.0427e-20|  3.4748e-03|  1.0000e-03|  1.0000e-03|  1.0000e-03|   -4.446482|   -4.739576|   -5.107833|   -5.107852|   -4.642693|   -5.903764|    3.874360|
|       15692|  2.7870e+00|  3.0428e-20|  3.4748e-03|  1.0000e-03|  1.0000e-03|  1.0000e-03|   -4.446469|   -4.739572|   -5.107831|   -5.107850|   -4.642679|   -5.909245|    3.874282|
|       15693|  2.7870e+00|  3.0429e-20|  3.4748e-03|  1.0000e-03|  1.0000e-03|  1.0000e-03|   -4.446455|   -4.739568|   -5.107829|   -5.107848|   -4.642665|   -5.911849|    3.874204|
|       15694|  2.7870e+00|  3.0430e-20|  3.4748e-03|  1.0000e-03|  1.0000e-03|  1.0000e-03|   -4.446442|   -4.739565|   -5.107827|   -5.107846|   -4.642651|   -5.913303|    3.874126|
|       15695|  2.7870e+00|  3.0431e-20|  3.4748e-03|  1.0000e-03|  1.0000e-03|  1.0000e-03|   -4.446428|   -4.739561|   -5.107825|   -5.107844|   -4.642636|   -5.914229|    3.874047|
|       15696|  2.7870e+00|  3.0432e-20|  3.4748e-03|  1.0000e-03|  1.0000e-03|  1.0000e-03|   -4.446415|   -4.739557|   -5.107823|   -5.107842|   -4.642622|   -5.911649|    3.873969|
|       15697|  2.7870e+00|  3.0433e-20|  3.4748e-03|  1.0000e-03|  1.0000e-03|  1.0000e-03|   -4.446402|   -4.739553|   -5.107821|   -5.107840|   -4.642608|   -5.915170|    3.873891|
|       15698|  2.7870e+00|  3.0434e-20|  3.4748e-03|  1.0000e-03|  1.0000e-03|  1.0000e-03|   -4.446389|   -4.739550|   -5.107819|   -5.107838|   -4.642594|   -5.925725|    3.873812|
|       15699|  2.7869e+00|  3.0434e-20|  3.4748e-03|  1.0000e-03|  1.0000e-03|  1.0000e-03|   -4.446376|   -4.739546|   -5.107817|   -5.107836|   -4.642580|   -5.927225|    3.873734|
|       15700|  2.7869e+00|  3.0435e-20|  3.4748e-03|  1.0000e-03|  1.0000e-03|  1.0000e-03|   -4.446362|   -4.739542|   -5.107815|   -5.107834|   -4.642566|   -5.927753|    3.873655|
|       15701|  2.7869e+00|  3.0436e-20|  3.4748e-03|  1.0000e-03|  1.0000e-03|  1.0000e-03|   -4.446349|   -4.739538|   -5.107813|   -5.107832|   -4.642552|   -5.928128|    3.873577|
|       15702|  2.7869e+00|  3.0437e-20|  3.4748e-03|  1.0000e-03|  1.0000e-03|  1.0000e-03|   -4.446336|   -4.739534|   -5.107812|   -5.107830|   -4.642538|   -5.928517|    3.873499|
|       15703|  2.7869e+00|  3.0438e-20|  3.4748e-03|  1.0000e-03|  1.0000e-03|  1.0000e-03|   -4.446323|   -4.739530|   -5.107810|   -5.107828|   -4.642524|   -5.928997|    3.873420|
|       15704|  2.7869e+00|  3.0439e-20|  3.4748e-03|  1.0000e-03|  1.0000e-03|  1.0000e-03|   -4.446310|   -4.739526|   -5.107808|   -5.107826|   -4.642510|   -5.929285|    3.873342|
|       15705|  2.7869e+00|  3.0440e-20|  3.4748e-03|  1.0000e-03|  1.0000e-03|  1.0000e-03|   -4.446297|   -4.739522|   -5.107806|   -5.107825|   -4.642497|   -5.929834|    3.873263|
|       15706|  2.7869e+00|  3.0441e-20|  3.4748e-03|  1.0000e-03|  1.0000e-03|  1.0000e-03|   -4.446284|   -4.739518|   -5.107804|   -5.107823|   -4.642483|   -5.930411|    3.873185|
|       15707|  2.7868e+00|  3.0442e-20|  3.4748e-03|  1.0000e-03|  1.0000e-03|  1.0000e-03|   -4.446271|   -4.739514|   -5.107802|   -5.107821|   -4.642469|   -5.922995|    3.873106|
|       15708|  2.7868e+00|  3.0443e-20|  3.4748e-03|  1.0000e-03|  1.0000e-03|  1.0000e-03|   -4.446258|   -4.739510|   -5.107801|   -5.107819|   -4.642455|   -5.930038|    3.873027|
|       15709|  2.7868e+00|  3.0444e-20|  3.4748e-03|  1.0000e-03|  1.0000e-03|  1.0000e-03|   -4.446245|   -4.739506|   -5.107799|   -5.107818|   -4.642442|   -5.931967|    3.872949|
|       15710|  2.7868e+00|  3.0445e-20|  3.4748e-03|  1.0000e-03|  1.0000e-03|  1.0000e-03|   -4.446233|   -4.739502|   -5.107797|   -5.107816|   -4.642428|   -5.931286|    3.872870|
|       15711|  2.7868e+00|  3.0446e-20|  3.4748e-03|  1.0000e-03|  1.0000e-03|  1.0000e-03|   -4.446220|   -4.739498|   -5.107796|   -5.107814|   -4.642415|   -5.932539|    3.872792|
|       15712|  2.7868e+00|  3.0447e-20|  3.4748e-03|  1.0000e-03|  1.0000e-03|  1.0000e-03|   -4.446207|   -4.739494|   -5.107794|   -5.107812|   -4.642401|   -5.932906|    3.872713|
|       15713|  2.7868e+00|  3.0447e-20|  3.4748e-03|  1.0000e-03|  1.0000e-03|  1.0000e-03|   -4.446194|   -4.739490|   -5.107792|   -5.107811|   -4.642388|   -5.933807|    3.872634|
|       15714|  2.7868e+00|  3.0448e-20|  3.4748e-03|  1.0000e-03|  1.0000e-03|  1.0000e-03|   -4.446181|   -4.739486|   -5.107791|   -5.107809|   -4.642374|   -5.934304|    3.872555|
|       15715|  2.7868e+00|  3.0449e-20|  3.4748e-03|  1.0000e-03|  1.0000e-03|  1.0000e-03|   -4.446169|   -4.739482|   -5.107789|   -5.107808|   -4.642361|   -5.934789|    3.872477|
|       15716|  2.7868e+00|  3.0450e-20|  3.4748e-03|  1.0000e-03|  1.0000e-03|  1.0000e-03|   -4.446156|   -4.739478|   -5.107788|   -5.107806|   -4.642347|   -5.935083|    3.872398|
|       15717|  2.7868e+00|  3.0451e-20|  3.4748e-03|  1.0000e-03|  1.0000e-03|  1.0000e-03|   -4.446144|   -4.739473|   -5.107786|   -5.107804|   -4.642334|   -5.935715|    3.872319|
|       15718|  2.7868e+00|  3.0452e-20|  3.4748e-03|  1.0000e-03|  1.0000e-03|  1.0000e-03|   -4.446131|   -4.739469|   -5.107784|   -5.107803|   -4.642321|   -5.936157|    3.872240|
|       15719|  2.7867e+00|  3.0453e-20|  3.4748e-03|  1.0000e-03|  1.0000e-03|  1.0000e-03|   -4.446118|   -4.739465|   -5.107783|   -5.107801|   -4.642307|   -5.936998|    3.872162|
|       15720|  2.7867e+00|  3.0454e-20|  3.4748e-03|  1.0000e-03|  1.0000e-03|  1.0000e-03|   -4.446106|   -4.739461|   -5.107781|   -5.107800|   -4.642294|   -5.937112|    3.872083|
|       15721|  2.7867e+00|  3.0455e-20|  3.4748e-03|  1.0000e-03|  1.0000e-03|  1.0000e-03|   -4.446093|   -4.739457|   -5.107780|   -5.107798|   -4.642281|   -5.936125|    3.872004|
|       15722|  2.7867e+00|  3.0456e-20|  3.4748e-03|  1.0000e-03|  1.0000e-03|  1.0000e-03|   -4.446081|   -4.739452|   -5.107778|   -5.107797|   -4.642268|   -5.937267|    3.871925|
|       15723|  2.7867e+00|  3.0457e-20|  3.4748e-03|  1.0000e-03|  1.0000e-03|  1.0000e-03|   -4.446069|   -4.739448|   -5.107777|   -5.107795|   -4.642255|   -5.925383|    3.871846|
|       15724|  2.7867e+00|  3.0458e-20|  3.4748e-03|  1.0000e-03|  1.0000e-03|  1.0000e-03|   -4.446056|   -4.739444|   -5.107776|   -5.107794|   -4.642242|   -5.916468|    3.871767|
|       15725|  2.7867e+00|  3.0459e-20|  3.4748e-03|  1.0000e-03|  1.0000e-03|  1.0000e-03|   -4.446044|   -4.739439|   -5.107774|   -5.107793|   -4.642229|   -5.938046|    3.871688|
|       15726|  2.7867e+00|  3.0460e-20|  3.4748e-03|  1.0000e-03|  1.0000e-03|  1.0000e-03|   -4.446032|   -4.739435|   -5.107773|   -5.107791|   -4.642216|   -5.938457|    3.871609|
|       15727|  2.7867e+00|  3.0461e-20|  3.4748e-03|  1.0000e-03|  1.0000e-03|  1.0000e-03|   -4.446019|   -4.739431|   -5.107771|   -5.107790|   -4.642203|   -5.938715|    3.871530|
|       15728|  2.7867e+00|  3.0462e-20|  3.4748e-03|  1.0000e-03|  1.0000e-03|  1.0000e-03|   -4.446007|   -4.739426|   -5.107770|   -5.107788|   -4.642190|   -5.939443|    3.871451|
|       15729|  2.7867e+00|  3.0462e-20|  3.4748e-03|  1.0000e-03|  1.0000e-03|  1.0000e-03|   -4.445995|   -4.739422|   -5.107769|   -5.107787|   -4.642177|   -5.939780|    3.871372|
|       15730|  2.7867e+00|  3.0463e-20|  3.4748e-03|  1.0000e-03|  1.0000e-03|  1.0000e-03|   -4.445983|   -4.739418|   -5.107767|   -5.107786|   -4.642164|   -5.940540|    3.871293|

scontrol show job 1094561
JobId=1094561 JobName=m9_course
   UserId=anthonyy(3152141) GroupId=anthonyy(3152141) MCS_label=N/A
   Priority=687424 Nice=0 Account=rrg-jphickey QOS=normal
   JobState=COMPLETING Reason=TimeLimit Dependency=(null)
   Requeue=0 Restarts=0 BatchFlag=1 Reboot=0 ExitCode=0:15
   RunTime=18:00:01 TimeLimit=18:00:00 TimeMin=N/A
   SubmitTime=2026-03-02T22:41:46 EligibleTime=2026-03-02T22:41:46
   AccrueTime=2026-03-02T22:41:46
   StartTime=2026-03-02T22:44:12 EndTime=2026-03-03T16:44:13 Deadline=N/A
   SuspendTime=None SecsPreSuspend=0 LastSchedEval=2026-03-02T22:44:12 Scheduler=Backfill
   Partition=compute AllocNode:Sid=tri-login04:2278487
   ReqNodeList=(null) ExcNodeList=(null)
   NodeList=tri[0608,1008]
   BatchHost=tri0608
   NumNodes=2 NumCPUs=384 NumTasks=128 CPUs/Task=1 ReqB:S:C:T=0:0:*:*
   ReqTRES=cpu=128,mem=1534000M,node=2,billing=128
   AllocTRES=cpu=384,mem=1534000M,node=2,billing=384
   Socks/Node=* NtasksPerN:B:S:C=64:0:*:* CoreSpec=*
   MinCPUsNode=64 MinMemoryNode=0 MinTmpDiskNode=0
   Features=(null) DelayBoot=00:00:00
   OverSubscribe=NO Contiguous=0 Licenses=(null) Network=(null)
   Command=/scratch/anthonyy/reentry/orion/cases/m9_course/run.sh
   WorkDir=/scratch/anthonyy/reentry/orion/cases/m9_course
   Comment=/opt/slurm/bin/sbatch --export=NONE --get-user-env=L run.sh 
   StdErr=/scratch/anthonyy/reentry/orion/cases/m9_course/orion_1094561.err
   StdIn=/dev/null
   StdOut=/scratch/anthonyy/reentry/orion/cases/m9_course/orion_1094561.out
   TresPerTask=cpu=1
   

sacct -j 1094561
JobID           JobName    Account    Elapsed  MaxVMSize     MaxRSS  SystemCPU    UserCPU ExitCode 
------------ ---------- ---------- ---------- ---------- ---------- ---------- ---------- -------- 
1094561       m9_course rrg-jphic+   18:00:01                         03:46:56 94-20:54:+      0:0 
1094561.bat+      batch rrg-jphic+   18:00:02          0     16096K  00:00.104  00:00.379     0:15 
1094561.ext+     extern rrg-jphic+   18:00:01                         00:00:00   00:00:00      0:0 
1094561.0       SU2_CFD rrg-jphic+   18:00:02          0   3036332K   03:46:56 94-20:54:+     0:15 

