Nodes:  tri[1075,1206]
Tasks:  128
NPN:    64
Config: /scratch/anthonyy/reentry/orion/config/generated/m1.5_aoa60.cfg

-------------------------------------------------------------------------
|    ___ _   _ ___                                                      |
|   / __| | | |_  )   Release 7.5.1 "Blackbird"                         |
|   \__ \ |_| |/ /                                                      |
|   |___/\___//___|   Suite (Computational Fluid Dynamics Code)         |
|                                                                       |
-------------------------------------------------------------------------
| SU2 Project Website: https://su2code.github.io                        |
|                                                                       |
| The SU2 Project is maintained by the SU2 Foundation                   |
| (http://su2foundation.org)                                            |
-------------------------------------------------------------------------
| Copyright 2012-2023, SU2 Contributors                                 |
|                                                                       |
| SU2 is free software; you can redistribute it and/or                  |
| modify it under the terms of the GNU Lesser General Public            |
| License as published by the Free Software Foundation; either          |
| version 2.1 of the License, or (at your option) any later version.    |
|                                                                       |
| SU2 is distributed in the hope that it will be useful,                |
| but WITHOUT ANY WARRANTY; without even the implied warranty of        |
| MERCHANTABILITY or FITNESS FOR A PARTICULAR PURPOSE. See the GNU      |
| Lesser General Public License for more details.                       |
|                                                                       |
| You should have received a copy of the GNU Lesser General Public      |
| License along with SU2. If not, see <http://www.gnu.org/licenses/>.   |
-------------------------------------------------------------------------

Parsing config file for zone 0

----------------- Physical Case Definition ( Zone 0 ) -------------------
Compressible RANS equations.
Turbulence model: Spalart-Allmaras-noft2
Hybrid RANS/LES: No Hybrid RANS/LES
Mach number: 1.5.
Angle of attack (AoA): 60 deg, and angle of sideslip (AoS): 0 deg.
Reynolds number: 1.71557e+08. Reference length 5.
No restart solution, use the values at infinity (freestream).
Non-Dimensional simulation (V=1.0, Rho=1.0, T=1.0 at the farfield).
The reference area will be computed using y(2D) or z(3D) projection.
The semi-span will be computed using the max y(3D) value.
The reference length is 0.64607 m.
Reference origin for moment evaluation is (0.25, 0, 0).
Surface(s) where the force coefficients are evaluated: ORION_SURFACE.

Input mesh file name: ../../mesh/fine.su2

--------------- Space Numerical Integration ( Zone 0 ) ------------------
Jameson-Schmidt-Turkel scheme (2nd order in space) for the flow inviscid terms.
JST viscous coefficients (2nd & 4th): 0.5, 0.02.
The method includes a grid stretching correction (p = 0.3).
Scalar upwind solver for the turbulence model.
First order integration in space.
Average of gradients with correction (viscous flow terms).
Average of gradients with correction (viscous turbulence terms).
Gradient for upwind reconstruction: Green-Gauss.
Gradient for viscous and source terms: Green-Gauss.

--------------- Time Numerical Integration  ( Zone 0 ) ------------------
Local time stepping (steady state simulation).
Euler implicit method for the flow equations.
FGMRES is used for solving the linear system.
Using a ILU(0) preconditioning.
Convergence criteria of the linear solver: 1e-06.
Max number of linear iterations: 100.
CFL adaptation. Factor down: 0.5, factor up: 1.2,
                lower limit: 0.1, upper limit: 3,
                acceptable linear residual: 0.001.
Courant-Friedrichs-Lewy number:        1
Euler implicit time integration for the turbulence model.

------------------ Convergence Criteria  ( Zone 0 ) ---------------------
Maximum number of solver subiterations: 999999.
Begin convergence monitoring at iteration 5.
Residual minimum value: 1e-8.
Cauchy series min. value: 1e-10.
Number of Cauchy elements: 100.
Begin windowed time average at iteration 0.

-------------------- Output Information ( Zone 0 ) ----------------------
File writing frequency: 
+------------------------------------+
|                     File| Frequency|
+------------------------------------+
|                  RESTART|       150|
|                 PARAVIEW|       150|
|         SURFACE_PARAVIEW|       150|
+------------------------------------+
Writing the convergence history file every 1 inner iterations.
Writing the screen convergence history every 1 inner iterations.
The tabular file format is CSV (.csv).
Convergence history file name: history.
Forces breakdown file name: forces_breakdown.dat.
Surface file name: surface_flow.
Volume file name: flow.
Restart file name: restart_flow.

------------- Config File Boundary Information ( Zone 0 ) ---------------
+-----------------------------------------------------------------------+
|                        Marker Type|                        Marker Name|
+-----------------------------------------------------------------------+
|                          Far-field|                           FARFIELD|
+-----------------------------------------------------------------------+
|                     Heat flux wall|                      ORION_SURFACE|
+-----------------------------------------------------------------------+

-------------------- Output Preprocessing ( Zone 0 ) --------------------

WARNING: SURFACE_PRESSURE_DROP can only be computed for at least 2 surfaces (outlet, inlet, ...)

Screen output fields: INNER_ITER, WALL_TIME, RMS_DENSITY, RMS_MOMENTUM-X, RMS_MOMENTUM-Y, RMS_MOMENTUM-Z, RMS_ENERGY, RMS_NU_TILDE, DRAG
History output group(s): ITER, RMS_RES
Convergence field(s): RMS_DENSITY
Warning: No (valid) fields chosen for time convergence monitoring. Time convergence monitoring inactive.
Volume output fields: MACH, PRESSURE, TEMPERATURE, DENSITY, HEAT_FLUX, Y_PLUS, COORDINATES, SOLUTION

------------------- Geometry Preprocessing ( Zone 0 ) -------------------
Three dimensional problem.
62211324 grid points before partitioning.
190879888 volume elements before partitioning.
2 surface markers.
4104 boundary elements in index 0 (Marker = FARFIELD).
1824836 boundary elements in index 1 (Marker = ORION_SURFACE).
Executing the partitioning functions.
Building the graph adjacency structure.
Calling ParMETIS... graph partitioning complete (4959327 edge cuts).
Distributing ParMETIS coloring.
Rebalancing vertices.
Rebalancing volume element connectivity.
Rebalancing markers and surface elements.
66952290 vertices including ghost points. 
197997438 interior elements including halo cells. 
103171259 tetrahedra.
94500655 prisms.
325524 pyramids.
Establishing MPI communication patterns.
Setting point connectivity.
Renumbering points (Reverse Cuthill McKee Ordering).
Recomputing point connectivity.
Setting element connectivity.
Checking the numerical grid orientation.
All volume elements are correctly orientend.
All surface elements are correctly orientend.
Identifying edges and vertices.
Setting the control volume structure.
Volume of the computational grid: 535693.
Searching for the closest normal neighbors to the surfaces.
Storing a mapping from global to local point index.
Compute the surface curvature.
Max K: 132.896. Mean K: 3.9104. Standard deviation K: 7.49569.
Checking for periodicity.
Computing mesh quality statistics for the dual control volumes.
+--------------------------------------------------------------+
|           Mesh Quality Metric|        Minimum|        Maximum|
+--------------------------------------------------------------+
|    Orthogonality Angle (deg.)|        53.0661|             90|
|     CV Face Area Aspect Ratio|        1.01143|        75298.5|
|           CV Sub-Volume Ratio|        1.00029|        45.0258|
+--------------------------------------------------------------+
Finding max control volume width.
Communicating number of neighbors.
Reference area = 11.531 m^2.
Semi-span length = 2.49999 m.
Wetted area = 57.9072 m^2.
Area projection in the x-plane = 19.6343 m^2, y-plane = 11.531 m^2, z-plane = 11.531 m^2.
Max. coordinate in the x-direction = 2.575 m, y-direction = 2.49999 m, z-direction = 2.49999 m.
Min. coordinate in the x-direction = -0.71 m, y-direction = -2.49999 m, z-direction = -2.5 m.
Computing wall distances.

-------------------- Solver Preprocessing ( Zone 0 ) --------------------
Viscous flow: Computing pressure using the ideal gas law
based on the free-stream temperature and a density computed
from the Reynolds number.
Force coefficients computed using free-stream values.

-- Models:
+------------------------------------------------------------------------------+
|          Viscosity Model|        Conductivity Model|              Fluid Model|
+------------------------------------------------------------------------------+
|               SUTHERLAND|          CONSTANT_PRANDTL|             STANDARD_AIR|
+------------------------------------------------------------------------------+
-- Fluid properties:
+------------------------------------------------------------------------------+
|                  Name|    Dim. value|    Ref. value|      Unit|Non-dim. value|
+------------------------------------------------------------------------------+
|        Ref. Viscosity|     1.716e-05|       613.934|   N.s/m^2|   2.79509e-08|
|      Sutherland Temp.|        273.15|        288.15|         K|      0.947944|
|     Sutherland Const.|         110.4|        288.15|         K|      0.383134|
+------------------------------------------------------------------------------+
|        Prandtl (Lam.)|             -|             -|         -|          0.72|
|       Prandtl (Turb.)|             -|             -|         -|           0.9|
+------------------------------------------------------------------------------+
|          Gas Constant|       287.058|       904.233|  N.m/kg.K|       0.31746|
|      Spec. Heat Ratio|             -|             -|         -|           1.4|
+------------------------------------------------------------------------------+
-- Initial and free-stream conditions:
+------------------------------------------------------------------------------+
|                  Name|    Dim. value|    Ref. value|      Unit|Non-dim. value|
+------------------------------------------------------------------------------+
|       Static Pressure|       99485.6|        313380|        Pa|       0.31746|
|               Density|       1.20274|       1.20274|    kg/m^3|             1|
|           Temperature|        288.15|        288.15|         K|             1|
|          Total Energy|        337067|        260555|   m^2/s^2|       1.29365|
|            Velocity-X|       255.223|       510.446|       m/s|           0.5|
|            Velocity-Y|             0|       510.446|       m/s|             0|
|            Velocity-Z|       442.059|       510.446|       m/s|      0.866025|
|    Velocity Magnitude|       510.446|       510.446|       m/s|             1|
+------------------------------------------------------------------------------+
|             Viscosity|    1.7893e-05|       613.934|   N.s/m^2|   2.91448e-08|
|          Conductivity|             -|        555139|   W/m^2.K|             -|
|     Turb. Kin. Energy|        977.08|        260555|   m^2/s^2|       0.00375|
|     Spec. Dissipation|   6.56779e+06|       510.446|       1/s|       12866.8|
+------------------------------------------------------------------------------+
|           Mach Number|             -|             -|         -|           1.5|
|       Reynolds Number|             -|             -|         -|   1.71557e+08|
+------------------------------------------------------------------------------+
Initialize Jacobian structure (Navier-Stokes). MG level: 0.
Initialize Jacobian structure (SA model).

------------------- Numerics Preprocessing ( Zone 0 ) -------------------

----------------- Integration Preprocessing ( Zone 0 ) ------------------

------------------- Iteration Preprocessing ( Zone 0 ) ------------------
Euler/Navier-Stokes/RANS fluid iteration.

------------------------------ Begin Solver -----------------------------

Simulation Run using the Single-zone Driver
WARNING: SU2 was not compiled for an AVX-capable architecture. Performance could be better,
         see https://su2code.github.io/docs_v7/Build-SU2-Linux-MacOS/#compiler-optimizations
+--------------------------------------------------------------------------------------------------------------------+
|  Inner_Iter|   Time(sec)|    rms[Rho]|   rms[RhoU]|   rms[RhoV]|   rms[RhoW]|   rms[RhoE]|     rms[nu]|          CD|
+--------------------------------------------------------------------------------------------------------------------+
|           0|  6.1908e+00|   -5.358670|  -16.137256|  -16.483629|  -15.938396|   -5.151545|  -12.315306|    0.956349|
|           1|  6.2337e+00|   -5.511682|   -5.823372|   -6.419208|   -5.567794|   -5.310981|  -12.320693|    1.324120|
|           2|  6.1991e+00|   -5.547005|   -5.858919|   -6.406184|   -5.618602|   -5.342873|  -12.561113|    1.668874|
|           3|  6.2640e+00|   -5.581423|   -5.878618|   -6.368601|   -5.670750|   -5.373105|  -12.709256|    1.982863|
|           4|  6.3795e+00|   -5.618030|   -5.878003|   -6.324050|   -5.724398|   -5.405642|  -12.807763|    2.237985|
|           5|  6.5319e+00|   -5.655499|   -5.860598|   -6.283409|   -5.774481|   -5.439579|  -12.863667|    2.388230|
|           6|  6.7006e+00|   -5.683657|   -5.840881|   -6.252924|   -5.807987|   -5.463563|  -12.895497|    2.398230|
|           7|  6.8285e+00|   -5.690348|   -5.833769|   -6.232005|   -5.817227|   -5.461663|  -12.914944|    2.287980|
|           8|  6.9351e+00|   -5.683878|   -5.840730|   -6.217129|   -5.812019|   -5.445665|  -12.917896|    2.135928|
|           9|  7.0247e+00|   -5.681254|   -5.842819|   -6.201776|   -5.817652|   -5.437217|  -12.909329|    2.009016|
|          10|  7.0980e+00|   -5.687400|   -5.839269|   -6.192457|   -5.837198|   -5.441665|  -12.897659|    1.939619|
|          11|  7.1521e+00|   -5.696997|   -5.841525|   -6.191747|   -5.856997|   -5.452230|  -12.889334|    1.926903|
|          12|  7.2104e+00|   -5.706643|   -5.852758|   -6.198266|   -5.868900|   -5.463574|  -12.881181|    1.952297|
|          13|  7.2557e+00|   -5.715052|   -5.865209|   -6.207533|   -5.875045|   -5.473507|  -12.873164|    1.992683|
|          14|  7.2977e+00|   -5.721694|   -5.872635|   -6.216209|   -5.880196|   -5.481466|  -12.866597|    2.031543|
|          15|  7.3276e+00|   -5.726221|   -5.876654|   -6.222662|   -5.886796|   -5.486476|  -12.861202|    2.061035|
|          16|  7.3557e+00|   -5.729117|   -5.881100|   -6.226611|   -5.893239|   -5.489309|  -12.856004|    2.080157|
|          17|  7.3825e+00|   -5.731669|   -5.885251|   -6.228193|   -5.897330|   -5.492199|  -12.851183|    2.091569|
|          18|  7.4106e+00|   -5.733850|   -5.886499|   -6.229023|   -5.899587|   -5.494951|  -12.847518|    2.098572|
|          19|  7.4326e+00|   -5.735601|   -5.886873|   -6.230066|   -5.901997|   -5.496964|  -12.844251|    2.103583|
|          20|  7.4480e+00|   -5.736046|   -5.888207|   -6.230845|   -5.904987|   -5.497100|  -12.841573|    2.107770|
|          21|  7.4657e+00|   -5.736384|   -5.889760|   -6.230648|   -5.907864|   -5.497250|  -12.838397|    2.111352|
|          22|  7.4826e+00|   -5.736596|   -5.889247|   -6.229671|   -5.909298|   -5.497451|  -12.835905|    2.114146|
|          23|  7.4943e+00|   -5.736934|   -5.888389|   -6.228874|   -5.909597|   -5.497832|  -12.833200|    2.116021|
|          24|  7.5097e+00|   -5.736560|   -5.888060|   -6.228247|   -5.909986|   -5.497108|  -12.831228|    2.117063|
|          25|  7.5192e+00|   -5.735866|   -5.888345|   -6.227514|   -5.911109|   -5.495940|  -12.829259|    2.117533|
|          26|  7.5266e+00|   -5.735332|   -5.887658|   -6.226431|   -5.912202|   -5.495151|  -12.827308|    2.117734|
|          27|  7.5342e+00|   -5.735106|   -5.886569|   -6.225087|   -5.912116|   -5.494864|  -12.825408|    2.117897|
|          28|  7.5422e+00|   -5.734587|   -5.885644|   -6.223973|   -5.910995|   -5.494231|  -12.823195|    2.118121|
|          29|  7.5485e+00|   -5.733764|   -5.885067|   -6.223023|   -5.910010|   -5.493081|  -12.821638|    2.118398|
|          30|  7.5572e+00|   -5.732646|   -5.884009|   -6.222066|   -5.909407|   -5.491563|  -12.820065|    2.118664|
|          31|  7.5652e+00|   -5.731815|   -5.882788|   -6.220858|   -5.908409|   -5.490477|  -12.818293|    2.118860|
|          32|  7.5735e+00|   -5.730829|   -5.881417|   -6.219506|   -5.905822|   -5.489268|  -12.816026|    2.118955|
|          33|  7.5800e+00|   -5.729441|   -5.879660|   -6.218084|   -5.901661|   -5.487569|  -12.813444|    2.118959|
|          34|  7.5880e+00|   -5.727577|   -5.877185|   -6.216686|   -5.896442|   -5.485113|  -12.810424|    2.118903|
|          35|  7.5960e+00|   -5.724974|   -5.873966|   -6.214849|   -5.889556|   -5.481575|  -12.806845|    2.118821|
|          36|  7.6050e+00|   -5.721700|   -5.869877|   -6.212408|   -5.879668|   -5.477065|  -12.801479|    2.118736|
|          37|  7.6120e+00|   -5.717252|   -5.863950|   -6.209114|   -5.865254|   -5.470938|  -12.794880|    2.118650|
|          38|  7.6151e+00|   -5.711213|   -5.855576|   -6.204842|   -5.845760|   -5.462648|  -12.785398|    2.118554|
|          39|  7.6203e+00|   -5.702900|   -5.844467|   -6.199102|   -5.821123|   -5.451207|  -12.773711|    2.118434|
|          40|  7.6250e+00|   -5.691954|   -5.830434|   -6.191466|   -5.791332|   -5.436359|  -12.758822|    2.118282|
|          41|  7.6301e+00|   -5.678134|   -5.812799|   -6.181297|   -5.756568|   -5.418087|  -12.740771|    2.118097|
|          42|  7.6338e+00|   -5.661284|   -5.791345|   -6.168366|   -5.717611|   -5.396529|  -12.719753|    2.117885|
|          43|  7.6357e+00|   -5.641303|   -5.766515|   -6.152459|   -5.675954|   -5.371880|  -12.695625|    2.117655|
|          44|  7.6382e+00|   -5.618341|   -5.739105|   -6.133546|   -5.633190|   -5.344565|  -12.669511|    2.117413|
|          45|  7.6432e+00|   -5.593034|   -5.709816|   -6.111867|   -5.590593|   -5.315591|  -12.642140|    2.117160|
|          46|  7.6483e+00|   -5.566201|   -5.679398|   -6.087767|   -5.549085|   -5.286023|  -12.614030|    2.116896|
|          47|  7.6511e+00|   -5.538534|   -5.648744|   -6.061998|   -5.509342|   -5.256636|  -12.586077|    2.116616|
|          48|  7.6566e+00|   -5.510670|   -5.618625|   -6.035145|   -5.471973|   -5.228063|  -12.558678|    2.116321|
|          49|  7.6525e+00|   -5.483253|   -5.589686|   -6.008001|   -5.437408|   -5.200830|  -12.532475|    2.116009|
|          50|  7.6476e+00|   -5.456807|   -5.562323|   -5.981055|   -5.405845|   -5.175369|  -12.507988|    2.115684|
|          51|  7.6431e+00|   -5.431851|   -5.536915|   -5.954900|   -5.377341|   -5.152086|  -12.485134|    2.115348|
|          52|  7.6386e+00|   -5.408571|   -5.513581|   -5.929833|   -5.351841|   -5.131024|  -12.464436|    2.115002|
|          53|  7.6347e+00|   -5.387207|   -5.492469|   -5.906215|   -5.329308|   -5.112315|  -12.445615|    2.114646|
|          54|  7.6298e+00|   -5.367799|   -5.473571|   -5.884177|   -5.309649|   -5.095850|  -12.428910|    2.114280|
|          55|  7.6268e+00|   -5.350412|   -5.456893|   -5.863836|   -5.292720|   -5.081605|  -12.414266|    2.113902|
|          56|  7.6223e+00|   -5.335057|   -5.442332|   -5.845193|   -5.278343|   -5.069508|  -12.401501|    2.113513|
|          57|  7.6201e+00|   -5.321648|   -5.429756|   -5.828240|   -5.266307|   -5.059389|  -12.390674|    2.113112|
|          58|  7.6236e+00|   -5.310104|   -5.419029|   -5.812909|   -5.256430|   -5.051116|  -12.381504|    2.112699|
|          59|  7.6260e+00|   -5.300291|   -5.410027|   -5.799144|   -5.248531|   -5.044475|  -12.373914|    2.112275|
|          60|  7.6280e+00|   -5.292078|   -5.402597|   -5.786800|   -5.242417|   -5.039297|  -12.367845|    2.111840|
|          61|  7.6251e+00|   -5.285375|   -5.396578|   -5.775799|   -5.237903|   -5.035472|  -12.363005|    2.111392|
|          62|  7.6287e+00|   -5.280008|   -5.391798|   -5.765985|   -5.234785|   -5.032793|  -12.359431|    2.110933|
|          63|  7.6259e+00|   -5.275863|   -5.388127|   -5.757282|   -5.232901|   -5.031146|  -12.356784|    2.110461|
|          64|  7.6304e+00|   -5.272767|   -5.385426|   -5.749539|   -5.232100|   -5.030326|  -12.355050|    2.109975|
|          65|  7.6339e+00|   -5.270606|   -5.383569|   -5.742658|   -5.232238|   -5.030227|  -12.354084|    2.109475|
|          66|  7.6375e+00|   -5.269278|   -5.382423|   -5.736521|   -5.233182|   -5.030758|  -12.353703|    2.108961|
|          67|  7.6406e+00|   -5.268645|   -5.381879|   -5.731028|   -5.234788|   -5.031782|  -12.353896|    2.108432|
|          68|  7.6437e+00|   -5.268610|   -5.381831|   -5.726086|   -5.236950|   -5.033226|  -12.354404|    2.107889|
|          69|  7.6471e+00|   -5.269048|   -5.382187|   -5.721603|   -5.239572|   -5.034956|  -12.355214|    2.107329|
|          70|  7.6425e+00|   -5.269868|   -5.382861|   -5.717491|   -5.242564|   -5.036904|  -12.356250|    2.106754|
|          71|  7.6390e+00|   -5.270997|   -5.383774|   -5.713682|   -5.245843|   -5.039023|  -12.357279|    2.106161|
|          72|  7.6357e+00|   -5.272325|   -5.384838|   -5.710097|   -5.249313|   -5.041206|  -12.358378|    2.105552|
|          73|  7.6332e+00|   -5.273784|   -5.385988|   -5.706684|   -5.252910|   -5.043424|  -12.359343|    2.104924|
|          74|  7.6300e+00|   -5.275265|   -5.387151|   -5.703374|   -5.256570|   -5.045564|  -12.360052|    2.104279|
|          75|  7.6261e+00|   -5.276681|   -5.388254|   -5.700118|   -5.260233|   -5.047562|  -12.360510|    2.103614|
|          76|  7.6229e+00|   -5.277970|   -5.389235|   -5.696873|   -5.263845|   -5.049384|  -12.360553|    2.102931|
|          77|  7.6191e+00|   -5.279021|   -5.390014|   -5.693583|   -5.267330|   -5.050931|  -12.360165|    2.102228|
|          78|  7.6157e+00|   -5.279763|   -5.390511|   -5.690224|   -5.270637|   -5.052162|  -12.359151|    2.101506|
|          79|  7.6115e+00|   -5.280083|   -5.390649|   -5.686745|   -5.273718|   -5.052962|  -12.357467|    2.100763|
|          80|  7.6026e+00|   -5.279890|   -5.390345|   -5.683127|   -5.276519|   -5.053257|  -12.355144|    2.099999|
|          81|  7.5952e+00|   -5.279125|   -5.389537|   -5.679333|   -5.278997|   -5.053015|  -12.351982|    2.099214|
|          82|  7.5871e+00|   -5.277696|   -5.388141|   -5.675337|   -5.281084|   -5.052134|  -12.348027|    2.098408|
|          83|  7.5794e+00|   -5.275562|   -5.386122|   -5.671126|   -5.282730|   -5.050607|  -12.343199|    2.097580|
|          84|  7.5719e+00|   -5.272657|   -5.383449|   -5.666669|   -5.283891|   -5.048356|  -12.337507|    2.096730|
|          85|  7.5637e+00|   -5.268937|   -5.380102|   -5.661960|   -5.284520|   -5.045351|  -12.331018|    2.095857|
|          86|  7.5562e+00|   -5.264382|   -5.376055|   -5.656976|   -5.284585|   -5.041588|  -12.323610|    2.094961|
|          87|  7.5495e+00|   -5.258936|   -5.371248|   -5.651709|   -5.284036|   -5.036986|  -12.315359|    2.094042|
|          88|  7.5437e+00|   -5.252584|   -5.365643|   -5.646149|   -5.282842|   -5.031544|  -12.306247|    2.093098|
|          89|  7.5364e+00|   -5.245302|   -5.359202|   -5.640290|   -5.280989|   -5.025211|  -12.296282|    2.092130|
|          90|  7.5301e+00|   -5.237092|   -5.351908|   -5.634136|   -5.278452|   -5.017975|  -12.285559|    2.091137|
|          91|  7.5238e+00|   -5.227997|   -5.343762|   -5.627680|   -5.275235|   -5.009879|  -12.274077|    2.090117|
|          92|  7.5171e+00|   -5.218040|   -5.334779|   -5.620934|   -5.271329|   -5.000919|  -12.261973|    2.089070|
|          93|  7.5110e+00|   -5.207291|   -5.325004|   -5.613903|   -5.266746|   -4.991173|  -12.249295|    2.087996|
|          94|  7.5068e+00|   -5.195807|   -5.314477|   -5.606604|   -5.261523|   -4.980677|  -12.236100|    2.086891|
|          95|  7.5012e+00|   -5.183654|   -5.303251|   -5.599050|   -5.255689|   -4.969476|  -12.222534|    2.085756|
|          96|  7.4953e+00|   -5.170922|   -5.291380|   -5.591256|   -5.249298|   -4.957664|  -12.208612|    2.084589|
|          97|  7.4850e+00|   -5.157687|   -5.278920|   -5.583254|   -5.242401|   -4.945288|  -12.194462|    2.083387|
|          98|  7.4752e+00|   -5.144050|   -5.265938|   -5.575064|   -5.235062|   -4.932450|  -12.180179|    2.082149|
|          99|  7.4654e+00|   -5.130106|   -5.252517|   -5.566714|   -5.227353|   -4.919235|  -12.165801|    2.080873|
|         100|  7.4568e+00|   -5.115943|   -5.238755|   -5.558239|   -5.219335|   -4.905715|  -12.151474|    2.079555|
|         101|  7.4270e+00|   -5.101670|   -5.224761|   -5.549677|   -5.211079|   -4.892013|  -12.161261|    2.079517|
|         102|  7.3975e+00|   -5.100996|   -5.224111|   -5.549283|   -5.210684|   -4.891379|  -12.160310|    2.079471|
|         103|  7.3683e+00|   -5.100193|   -5.223331|   -5.548811|   -5.210211|   -4.890624|  -12.159175|    2.079416|
|         104|  7.3435e+00|   -5.099236|   -5.222395|   -5.548245|   -5.209647|   -4.889724|  -12.157822|    2.079350|
|         105|  7.3195e+00|   -5.098097|   -5.221274|   -5.547565|   -5.208975|   -4.888655|  -12.156212|    2.079269|
|         106|  7.2959e+00|   -5.096744|   -5.219931|   -5.546751|   -5.208175|   -4.887386|  -12.154299|    2.079172|
|         107|  7.2726e+00|   -5.095139|   -5.218322|   -5.545776|   -5.207223|   -4.885883|  -12.152032|    2.079054|
|         108|  7.2506e+00|   -5.093240|   -5.216395|   -5.544608|   -5.206092|   -4.884109|  -12.149349|    2.078911|
|         109|  7.2286e+00|   -5.090999|   -5.214090|   -5.543212|   -5.204752|   -4.882018|  -12.146185|    2.078737|
|         110|  7.2106e+00|   -5.088361|   -5.211335|   -5.541543|   -5.203166|   -4.879563|  -12.142465|    2.078524|
|         111|  7.1929e+00|   -5.085266|   -5.208047|   -5.539554|   -5.201293|   -4.876687|  -12.138108|    2.078263|
|         112|  7.1758e+00|   -5.081640|   -5.204131|   -5.537187|   -5.199086|   -4.873321|  -12.133019|    2.077941|
|         113|  7.1597e+00|   -5.077396|   -5.199483|   -5.534379|   -5.196489|   -4.869380|  -12.127086|    2.077543|
|         114|  7.1470e+00|   -5.072424|   -5.193988|   -5.531061|   -5.193435|   -4.864740|  -12.120170|    2.077049|
|         115|  7.1338e+00|   -5.066577|   -5.187530|   -5.527159|   -5.189837|   -4.859231|  -12.112110|    2.076435|
|         116|  7.1207e+00|   -5.059671|   -5.180002|   -5.522601|   -5.185575|   -4.852626|  -12.102760|    2.075671|
|         117|  7.1118e+00|   -5.051496|   -5.171316|   -5.517318|   -5.180500|   -4.844663|  -12.092044|    2.074724|
|         118|  7.1029e+00|   -5.041847|   -5.161421|   -5.511265|   -5.174414|   -4.835083|  -12.079943|    2.073553|
|         119|  7.0982e+00|   -5.030563|   -5.150333|   -5.504431|   -5.167095|   -4.823660|  -12.066536|    2.072107|
|         120|  7.0939e+00|   -5.017584|   -5.138165|   -5.496830|   -5.158395|   -4.810260|  -12.053330|    2.070434|
|         121|  7.0885e+00|   -5.003670|   -5.125598|   -5.488773|   -5.148788|   -4.795702|  -12.042298|    2.068721|
|         122|  7.0834e+00|   -4.990327|   -5.113630|   -5.480799|   -5.139367|   -4.781756|  -12.031848|    2.066953|
|         123|  7.0787e+00|   -4.977871|   -5.102236|   -5.472820|   -5.130450|   -4.768846|  -12.021915|    2.065117|
|         124|  7.0742e+00|   -4.966408|   -5.091441|   -5.464811|   -5.122184|   -4.757121|  -12.012372|    2.063201|
|         125|  7.0701e+00|   -4.955867|   -5.081305|   -5.456790|   -5.114553|   -4.746512|  -12.003054|    2.061199|
|         126|  7.0659e+00|   -4.946039|   -5.071888|   -5.448797|   -5.107397|   -4.736755|  -11.993841|    2.059104|
|         127|  7.0617e+00|   -4.936670|   -5.063187|   -5.440875|   -5.100499|   -4.727520|  -11.984765|    2.056912|
|         128|  7.0577e+00|   -4.927605|   -5.055188|   -5.433065|   -5.093702|   -4.718607|  -11.975894|    2.054620|
|         129|  7.0537e+00|   -4.918746|   -5.047828|   -5.425378|   -5.086926|   -4.709887|  -11.967259|    2.052224|
|         130|  7.0495e+00|   -4.910046|   -5.040981|   -5.417805|   -5.080175|   -4.701284|  -11.958945|    2.049720|
|         131|  7.0459e+00|   -4.901544|   -5.034521|   -5.410321|   -5.073527|   -4.692849|  -11.951012|    2.047106|
|         132|  7.0421e+00|   -4.893288|   -5.028343|   -5.402895|   -5.067044|   -4.684644|  -11.943422|    2.044379|
|         133|  7.0388e+00|   -4.885303|   -5.022368|   -5.395514|   -5.060768|   -4.676697|  -11.936123|    2.041538|
|         134|  7.0355e+00|   -4.877602|   -5.016557|   -5.388181|   -5.054735|   -4.669037|  -11.929023|    2.038582|
|         135|  7.0318e+00|   -4.870163|   -5.010892|   -5.380896|   -5.048953|   -4.661641|  -11.922050|    2.035510|
|         136|  7.0289e+00|   -4.862926|   -5.005352|   -5.373643|   -5.043412|   -4.654433|  -11.915198|    2.032321|
|         137|  7.0253e+00|   -4.855869|   -4.999930|   -5.366440|   -5.038119|   -4.647389|  -11.908484|    2.029015|
|         138|  7.0223e+00|   -4.848990|   -4.994618|   -5.359310|   -5.033072|   -4.640507|  -11.901910|    2.025590|
|         139|  7.0190e+00|   -4.842292|   -4.989431|   -5.352279|   -5.028265|   -4.633812|  -11.895475|    2.022044|
|         140|  7.0155e+00|   -4.835752|   -4.984359|   -5.345356|   -5.023661|   -4.627292|  -11.889152|    2.018373|
|         141|  7.0127e+00|   -4.829352|   -4.979380|   -5.338552|   -5.019226|   -4.620932|  -11.882930|    2.014574|
|         142|  7.0090e+00|   -4.823042|   -4.974443|   -5.331850|   -5.014909|   -4.614662|  -11.876788|    2.010645|
|         143|  7.0058e+00|   -4.816792|   -4.969504|   -5.325219|   -5.010679|   -4.608426|  -11.870778|    2.006584|
|         144|  7.0025e+00|   -4.810628|   -4.964576|   -5.318645|   -5.006544|   -4.602249|  -11.865000|    2.002392|
|         145|  6.9994e+00|   -4.804590|   -4.959695|   -5.312117|   -5.002527|   -4.596175|  -11.859480|    1.998070|
|         146|  6.9963e+00|   -4.798731|   -4.954935|   -5.305663|   -4.998665|   -4.590276|  -11.854193|    1.993625|
|         147|  6.9927e+00|   -4.793118|   -4.950374|   -5.299338|   -4.995018|   -4.584634|  -11.849106|    1.989063|
|         148|  6.9896e+00|   -4.787789|   -4.946064|   -5.293182|   -4.991615|   -4.579301|  -11.844192|    1.984393|
|         149|  6.9865e+00|   -4.782737|   -4.942033|   -5.287222|   -4.988424|   -4.574278|  -11.839469|    1.979627|
|         150|  6.9833e+00|   -4.777940|   -4.938303|   -5.281464|   -4.985404|   -4.569548|  -11.834924|    1.974775|
+-----------------------------------------------------------------------+
|        File Writing Summary       |              Filename             |
+-----------------------------------------------------------------------+
|SU2 binary restart                 |restart_flow.dat                   |
|Paraview                           |flow.vtu                           |
|Paraview surface                   |surface_flow.vtu                   |
+-----------------------------------------------------------------------+
+--------------------------------------------------------------------------------------------------------------------+
|  Inner_Iter|   Time(sec)|    rms[Rho]|   rms[RhoU]|   rms[RhoV]|   rms[RhoW]|   rms[RhoE]|     rms[nu]|          CD|
+--------------------------------------------------------------------------------------------------------------------+
|         151|  7.1253e+00|   -4.773354|   -4.934866|   -5.275881|   -4.982489|   -4.565069|  -11.830545|    1.969846|
|         152|  7.1235e+00|   -4.768937|   -4.931659|   -5.270452|   -4.979628|   -4.560775|  -11.826344|    1.964851|
|         153|  7.1205e+00|   -4.764675|   -4.928603|   -5.265154|   -4.976798|   -4.556616|  -11.822362|    1.959796|
|         154|  7.1172e+00|   -4.760613|   -4.925705|   -5.259966|   -4.974021|   -4.552659|  -11.818633|    1.954687|
|         155|  7.1135e+00|   -4.756787|   -4.923012|   -5.254876|   -4.971301|   -4.548968|  -11.815121|    1.949529|
|         156|  7.1098e+00|   -4.753213|   -4.920582|   -5.249903|   -4.968633|   -4.545566|  -11.811794|    1.944325|
|         157|  7.1056e+00|   -4.749870|   -4.918469|   -5.245100|   -4.965992|   -4.542437|  -11.808599|    1.939078|
|         158|  7.1020e+00|   -4.746736|   -4.916676|   -5.240481|   -4.963362|   -4.539538|  -11.805529|    1.933790|
|         159|  7.0987e+00|   -4.743769|   -4.915138|   -5.236015|   -4.960729|   -4.536795|  -11.802660|    1.928466|
|         160|  7.0949e+00|   -4.740994|   -4.913838|   -5.231721|   -4.958108|   -4.534232|  -11.800057|    1.923110|
|         161|  7.0785e+00|   -4.738448|   -4.912827|   -5.227583|   -4.955532|   -4.531917|  -11.822214|    1.922933|
|         162|  7.0623e+00|   -4.738102|   -4.912704|   -5.227360|   -4.955225|   -4.531647|  -11.821421|    1.922721|
|         163|  7.0463e+00|   -4.737698|   -4.912553|   -5.227091|   -4.954866|   -4.531335|  -11.820485|    1.922467|
|         164|  7.0326e+00|   -4.737228|   -4.912367|   -5.226768|   -4.954449|   -4.530978|  -11.819385|    1.922162|
|         165|  7.0191e+00|   -4.736685|   -4.912138|   -5.226378|   -4.953967|   -4.530573|  -11.818097|    1.921795|
|         166|  7.0058e+00|   -4.736064|   -4.911853|   -5.225910|   -4.953415|   -4.530119|  -11.816598|    1.921355|
|         167|  6.9931e+00|   -4.735361|   -4.911497|   -5.225345|   -4.952790|   -4.529619|  -11.814865|    1.920825|
|         168|  6.9802e+00|   -4.734576|   -4.911051|   -5.224666|   -4.952092|   -4.529084|  -11.812878|    1.920189|
|         169|  6.9677e+00|   -4.733717|   -4.910490|   -5.223850|   -4.951326|   -4.528527|  -11.810619|    1.919425|
|         170|  6.9552e+00|   -4.732798|   -4.909784|   -5.222870|   -4.950505|   -4.527977|  -11.808078|    1.918505|
|         171|  6.9451e+00|   -4.731845|   -4.908893|   -5.221700|   -4.949649|   -4.527469|  -11.805259|    1.917398|
|         172|  6.9352e+00|   -4.730893|   -4.907773|   -5.220305|   -4.948784|   -4.527044|  -11.802173|    1.916066|
|         173|  6.9256e+00|   -4.729982|   -4.906377|   -5.218650|   -4.947943|   -4.526743|  -11.798838|    1.914461|
|         174|  6.9189e+00|   -4.729155|   -4.904675|   -5.216703|   -4.947152|   -4.526598|  -11.795274|    1.912527|
|         175|  6.9126e+00|   -4.728433|   -4.902680|   -5.214449|   -4.946407|   -4.526592|  -11.791475|    1.910197|
|         176|  6.9059e+00|   -4.727774|   -4.900477|   -5.211901|   -4.945639|   -4.526601|  -11.787428|    1.907391|
|         177|  6.9009e+00|   -4.727032|   -4.898289|   -5.209095|   -4.944669|   -4.526344|  -11.783144|    1.904016|
|         178|  6.8961e+00|   -4.725938|   -4.896511|   -5.206118|   -4.943183|   -4.525362|  -11.778662|    1.899967|
|         179|  6.8938e+00|   -4.724141|   -4.895682|   -5.203094|   -4.940795|   -4.523100|  -11.774219|    1.895126|
|         180|  6.8919e+00|   -4.721416|   -4.896379|   -5.200120|   -4.937240|   -4.519224|  -11.771569|    1.889712|
|         181|  6.8898e+00|   -4.717974|   -4.898611|   -5.197314|   -4.932813|   -4.514215|  -11.772172|    1.884353|
|         182|  6.8879e+00|   -4.714614|   -4.901322|   -5.194713|   -4.928481|   -4.509550|  -11.773095|    1.879056|
|         183|  6.8857e+00|   -4.712207|   -4.903584|   -5.192099|   -4.925066|   -4.506381|  -11.774241|    1.873821|
|         184|  6.8838e+00|   -4.711113|   -4.904965|   -5.189402|   -4.922868|   -4.505149|  -11.775272|    1.868648|
|         185|  6.8822e+00|   -4.711167|   -4.905529|   -5.186656|   -4.921719|   -4.505589|  -11.775735|    1.863538|
|         186|  6.8802e+00|   -4.711846|   -4.905644|   -5.183982|   -4.921177|   -4.506980|  -11.775463|    1.858487|
|         187|  6.8782e+00|   -4.712591|   -4.905790|   -5.181461|   -4.920769|   -4.508552|  -11.774497|    1.853492|
|         188|  6.8763e+00|   -4.712984|   -4.906351|   -5.179145|   -4.920142|   -4.509730|  -11.773054|    1.848548|
|         189|  6.8747e+00|   -4.712853|   -4.907477|   -5.177013|   -4.919153|   -4.510258|  -11.771481|    1.843648|
|         190|  6.8730e+00|   -4.712301|   -4.909115|   -5.175029|   -4.917870|   -4.510255|  -11.770091|    1.838784|
|         191|  6.8712e+00|   -4.711561|   -4.911042|   -5.173144|   -4.916464|   -4.509999|  -11.769065|    1.833950|
|         192|  6.8696e+00|   -4.710847|   -4.912985|   -5.171300|   -4.915098|   -4.509747|  -11.768385|    1.829137|
|         193|  6.8684e+00|   -4.710315|   -4.914757|   -5.169478|   -4.913887|   -4.509693|  -11.767922|    1.824336|
|         194|  6.8670e+00|   -4.709999|   -4.916297|   -5.167669|   -4.912839|   -4.509881|  -11.767497|    1.819541|
|         195|  6.8657e+00|   -4.709832|   -4.917628|   -5.165894|   -4.911868|   -4.510227|  -11.767027|    1.814744|
|         196|  6.8640e+00|   -4.709706|   -4.918822|   -5.164205|   -4.910873|   -4.510596|  -11.766471|    1.809937|
|         197|  6.8627e+00|   -4.709526|   -4.919941|   -5.162650|   -4.909785|   -4.510867|  -11.765832|    1.805116|
|         198|  6.8612e+00|   -4.709229|   -4.921042|   -5.161253|   -4.908585|   -4.510965|  -11.765143|    1.800276|
|         199|  6.8599e+00|   -4.708808|   -4.922175|   -5.159993|   -4.907322|   -4.510897|  -11.764432|    1.795413|
|         200|  6.8585e+00|   -4.708302|   -4.923336|   -5.158825|   -4.906076|   -4.510725|  -11.763762|    1.790523|
|         201|  6.8569e+00|   -4.707768|   -4.924492|   -5.157696|   -4.904916|   -4.510518|  -11.763142|    1.785605|
|         202|  6.8556e+00|   -4.707274|   -4.925601|   -5.156573|   -4.903871|   -4.510346|  -11.762573|    1.780658|
|         203|  6.8541e+00|   -4.706887|   -4.926649|   -5.155468|   -4.902929|   -4.510285|  -11.762078|    1.775679|
|         204|  6.8530e+00|   -4.706658|   -4.927659|   -5.154435|   -4.902040|   -4.510395|  -11.761658|    1.770670|
|         205|  6.8515e+00|   -4.706578|   -4.928649|   -5.153489|   -4.901141|   -4.510663|  -11.761295|    1.765628|
|         206|  6.8503e+00|   -4.706594|   -4.929618|   -5.152634|   -4.900182|   -4.511018|  -11.760921|    1.760556|
|         207|  6.8487e+00|   -4.706629|   -4.930547|   -5.151827|   -4.899145|   -4.511360|  -11.760489|    1.755453|
|         208|  6.8475e+00|   -4.706621|   -4.931430|   -5.151022|   -4.898013|   -4.511605|  -11.759981|    1.750320|
|         209|  6.8463e+00|   -4.706543|   -4.932262|   -5.150180|   -4.896756|   -4.511728|  -11.759446|    1.745157|
|         210|  6.8452e+00|   -4.706423|   -4.933037|   -5.149284|   -4.895334|   -4.511765|  -11.758908|    1.739964|
|         211|  6.8436e+00|   -4.706289|   -4.933707|   -5.148325|   -4.893682|   -4.511734|  -11.758392|    1.734741|
|         212|  6.8421e+00|   -4.706180|   -4.934209|   -5.147285|   -4.891735|   -4.511672|  -11.757900|    1.729487|
|         213|  6.8410e+00|   -4.706110|   -4.934470|   -5.146140|   -4.889413|   -4.511578|  -11.757420|    1.724200|
|         214|  6.8398e+00|   -4.706068|   -4.934415|   -5.144878|   -4.886639|   -4.511410|  -11.756910|    1.718879|
|         215|  6.8384e+00|   -4.706026|   -4.934002|   -5.143464|   -4.883359|   -4.511124|  -11.756343|    1.713520|
|         216|  6.8368e+00|   -4.705934|   -4.933219|   -5.141846|   -4.879512|   -4.510647|  -11.755693|    1.708121|
|         217|  6.8354e+00|   -4.705735|   -4.932072|   -5.139949|   -4.875037|   -4.509913|  -11.754927|    1.702676|
|         218|  6.8338e+00|   -4.705395|   -4.930556|   -5.137693|   -4.869862|   -4.508883|  -11.754043|    1.697183|
|         219|  6.8328e+00|   -4.704898|   -4.928644|   -5.135019|   -4.863920|   -4.507536|  -11.753051|    1.691637|
|         220|  6.8318e+00|   -4.704246|   -4.926276|   -5.131852|   -4.857144|   -4.505863|  -11.751935|    1.686033|
|         221|  6.8304e+00|   -4.703444|   -4.923359|   -5.128153|   -4.849480|   -4.503850|  -11.750672|    1.680368|
|         222|  6.8293e+00|   -4.702488|   -4.919816|   -5.123897|   -4.840901|   -4.501497|  -11.749223|    1.674636|
|         223|  6.8278e+00|   -4.701346|   -4.915575|   -5.119056|   -4.831407|   -4.498785|  -11.747552|    1.668835|
|         224|  6.8266e+00|   -4.699983|   -4.910605|   -5.113621|   -4.821024|   -4.495702|  -11.745597|    1.662962|
|         225|  6.8251e+00|   -4.698336|   -4.904907|   -5.107578|   -4.809791|   -4.492210|  -11.743314|    1.657014|
|         226|  6.8241e+00|   -4.696337|   -4.898498|   -5.100926|   -4.797764|   -4.488264|  -11.740605|    1.650990|
|         227|  6.8231e+00|   -4.693924|   -4.891401|   -5.093656|   -4.785008|   -4.483827|  -11.737413|    1.644887|
|         228|  6.8217e+00|   -4.691056|   -4.883655|   -5.085781|   -4.771602|   -4.478897|  -11.733686|    1.638707|
|         229|  6.8207e+00|   -4.687699|   -4.875290|   -5.077323|   -4.757640|   -4.473489|  -11.729370|    1.632448|
|         230|  6.8193e+00|   -4.683836|   -4.866340|   -5.068331|   -4.743220|   -4.467641|  -11.724392|    1.626112|
|         231|  6.8181e+00|   -4.679457|   -4.856852|   -5.058879|   -4.728440|   -4.461393|  -11.718733|    1.619699|
|         232|  6.8169e+00|   -4.674542|   -4.846881|   -5.049056|   -4.713405|   -4.454779|  -11.712380|    1.613212|
|         233|  6.8157e+00|   -4.669069|   -4.836492|   -5.038952|   -4.698219|   -4.447818|  -11.705277|    1.606653|
|         234|  6.8144e+00|   -4.663018|   -4.825763|   -5.028660|   -4.682987|   -4.440530|  -11.697378|    1.600023|
|         235|  6.8133e+00|   -4.656389|   -4.814783|   -5.018271|   -4.667805|   -4.432949|  -11.688676|    1.593327|
|         236|  6.8122e+00|   -4.649194|   -4.803639|   -5.007869|   -4.652762|   -4.425113|  -11.679180|    1.586566|
|         237|  6.8114e+00|   -4.641455|   -4.792407|   -4.997519|   -4.637927|   -4.417049|  -11.668916|    1.579745|
|         238|  6.8103e+00|   -4.633206|   -4.781153|   -4.987276|   -4.623356|   -4.408796|  -11.657931|    1.572866|
|         239|  6.8091e+00|   -4.624487|   -4.769933|   -4.977186|   -4.609095|   -4.400386|  -11.646298|    1.565933|
|         240|  6.8077e+00|   -4.615335|   -4.758789|   -4.967284|   -4.595171|   -4.391839|  -11.634085|    1.558949|
|         241|  6.8063e+00|   -4.605796|   -4.747762|   -4.957599|   -4.581610|   -4.383174|  -11.621370|    1.551919|
|         242|  6.8051e+00|   -4.595909|   -4.736889|   -4.948146|   -4.568428|   -4.374394|  -11.608231|    1.544845|
|         243|  6.8040e+00|   -4.585721|   -4.726204|   -4.938939|   -4.555641|   -4.365508|  -11.594757|    1.537731|
|         244|  6.8030e+00|   -4.575278|   -4.715735|   -4.929985|   -4.543262|   -4.356524|  -11.581054|    1.530582|
|         245|  6.8019e+00|   -4.564625|   -4.705499|   -4.921282|   -4.531304|   -4.347446|  -11.567242|    1.523403|
|         246|  6.8009e+00|   -4.553815|   -4.695504|   -4.912822|   -4.519776|   -4.338284|  -11.553439|    1.516196|
|         247|  6.8000e+00|   -4.542908|   -4.685755|   -4.904597|   -4.508695|   -4.329062|  -11.539742|    1.508969|
|         248|  6.7988e+00|   -4.531961|   -4.676264|   -4.896597|   -4.498080|   -4.319813|  -11.526246|    1.501725|
|         249|  6.7978e+00|   -4.521035|   -4.667043|   -4.888805|   -4.487946|   -4.310569|  -11.513030|    1.494469|
|         250|  6.7966e+00|   -4.510183|   -4.658116|   -4.881201|   -4.478312|   -4.301371|  -11.500158|    1.487206|
|         251|  6.7954e+00|   -4.499454|   -4.649491|   -4.873762|   -4.469185|   -4.292247|  -11.487683|    1.479941|
|         252|  6.7947e+00|   -4.488892|   -4.641184|   -4.866470|   -4.460574|   -4.283234|  -11.475670|    1.472679|
|         253|  6.7936e+00|   -4.478537|   -4.633208|   -4.859299|   -4.452496|   -4.274372|  -11.464173|    1.465426|
|         254|  6.7844e+00|   -4.468427|   -4.625574|   -4.852235|   -4.444967|   -4.265703|  -11.492873|    1.465194|
|         255|  6.7750e+00|   -4.468037|   -4.625328|   -4.852045|   -4.444718|   -4.265417|  -11.492060|    1.464915|
|         256|  6.7657e+00|   -4.467575|   -4.625036|   -4.851814|   -4.444425|   -4.265084|  -11.491085|    1.464581|
|         257|  6.7579e+00|   -4.467030|   -4.624689|   -4.851531|   -4.444084|   -4.264697|  -11.489918|    1.464180|
|         258|  6.7504e+00|   -4.466388|   -4.624277|   -4.851183|   -4.443687|   -4.264251|  -11.488519|    1.463697|
|         259|  6.7429e+00|   -4.465636|   -4.623790|   -4.850754|   -4.443230|   -4.263742|  -11.486846|    1.463117|
|         260|  6.7356e+00|   -4.464758|   -4.623216|   -4.850223|   -4.442705|   -4.263168|  -11.484847|    1.462420|
|         261|  6.7284e+00|   -4.463738|   -4.622540|   -4.849564|   -4.442110|   -4.262527|  -11.482464|    1.461581|
|         262|  6.7213e+00|   -4.462560|   -4.621746|   -4.848742|   -4.441441|   -4.261823|  -11.479626|    1.460571|
|         263|  6.7156e+00|   -4.461208|   -4.620816|   -4.847716|   -4.440697|   -4.261063|  -11.476258|    1.459356|
|         264|  6.7098e+00|   -4.459666|   -4.619727|   -4.846432|   -4.439878|   -4.260257|  -11.472272|    1.457891|
|         265|  6.7042e+00|   -4.457912|   -4.618453|   -4.844826|   -4.438985|   -4.259412|  -11.467570|    1.456126|
|         266|  6.6986e+00|   -4.455919|   -4.616958|   -4.842825|   -4.438008|   -4.258528|  -11.462045|    1.453998|
|         267|  6.6947e+00|   -4.453635|   -4.615196|   -4.840349|   -4.436926|   -4.257576|  -11.455578|    1.451432|
|         268|  6.6913e+00|   -4.450970|   -4.613100|   -4.837327|   -4.435682|   -4.256465|  -11.448046|    1.448341|
|         269|  6.6878e+00|   -4.447760|   -4.610579|   -4.833712|   -4.434159|   -4.254998|  -11.439333|    1.444620|
|         270|  6.6857e+00|   -4.443733|   -4.607505|   -4.829510|   -4.432158|   -4.252814|  -11.429361|    1.440148|
|         271|  6.6835e+00|   -4.438501|   -4.603721|   -4.824799|   -4.429386|   -4.249353|  -11.418142|    1.434784|
|         272|  6.6827e+00|   -4.431601|   -4.599064|   -4.819735|   -4.425501|   -4.243915|  -11.405861|    1.428368|
|         273|  6.6819e+00|   -4.422662|   -4.593416|   -4.814482|   -4.420248|   -4.235853|  -11.395341|    1.421187|
|         274|  6.6814e+00|   -4.412335|   -4.587226|   -4.809407|   -4.414142|   -4.225719|  -11.389886|    1.414079|
|         275|  6.6809e+00|   -4.402460|   -4.581529|   -4.804893|   -4.408588|   -4.215720|  -11.385324|    1.407041|
|         276|  6.6804e+00|   -4.393676|   -4.576566|   -4.800481|   -4.404214|   -4.206842|  -11.381481|    1.400071|
|         277|  6.6795e+00|   -4.386312|   -4.572473|   -4.795826|   -4.401374|   -4.199621|  -11.378153|    1.393166|
|         278|  6.6790e+00|   -4.380396|   -4.569289|   -4.790752|   -4.400161|   -4.194187|  -11.375151|    1.386325|
|         279|  6.6787e+00|   -4.375722|   -4.566989|   -4.785254|   -4.400493|   -4.190384|  -11.372345|    1.379549|
|         280|  6.6779e+00|   -4.371950|   -4.565489|   -4.779461|   -4.402152|   -4.187880|  -11.369669|    1.372840|
|         281|  6.6771e+00|   -4.368705|   -4.564662|   -4.773577|   -4.404848|   -4.186279|  -11.367128|    1.366201|
|         282|  6.6762e+00|   -4.365651|   -4.564364|   -4.767816|   -4.408281|   -4.185214|  -11.364775|    1.359635|
|         283|  6.6757e+00|   -4.362546|   -4.564445|   -4.762352|   -4.412176|   -4.184388|  -11.362677|    1.353148|
|         284|  6.6751e+00|   -4.359258|   -4.564772|   -4.757301|   -4.416314|   -4.183612|  -11.360897|    1.346741|
|         285|  6.6747e+00|   -4.355763|   -4.565235|   -4.752715|   -4.420541|   -4.182796|  -11.359479|    1.340419|
|         286|  6.6739e+00|   -4.352121|   -4.565767|   -4.748595|   -4.424771|   -4.181933|  -11.358443|    1.334185|
|         287|  6.6730e+00|   -4.348437|   -4.566329|   -4.744909|   -4.428962|   -4.181059|  -11.357776|    1.328041|
|         288|  6.6725e+00|   -4.344821|   -4.566914|   -4.741606|   -4.433108|   -4.180229|  -11.357454|    1.321990|
|         289|  6.6722e+00|   -4.341378|   -4.567538|   -4.738634|   -4.437219|   -4.179498|  -11.357445|    1.316034|
|         290|  6.6720e+00|   -4.338185|   -4.568204|   -4.735948|   -4.441283|   -4.178888|  -11.357687|    1.310175|
|         291|  6.6715e+00|   -4.335301|   -4.568929|   -4.733522|   -4.445286|   -4.178416|  -11.358127|    1.304414|
|         292|  6.6709e+00|   -4.332736|   -4.569708|   -4.731335|   -4.449190|   -4.178058|  -11.358721|    1.298754|
|         293|  6.6704e+00|   -4.330487|   -4.570525|   -4.729380|   -4.452938|   -4.177786|  -11.359419|    1.293194|
|         294|  6.6699e+00|   -4.328542|   -4.571348|   -4.727654|   -4.456463|   -4.177562|  -11.360184|    1.287736|
|         295|  6.6694e+00|   -4.326872|   -4.572136|   -4.726151|   -4.459688|   -4.177343|  -11.360990|    1.282380|
|         296|  6.6688e+00|   -4.325454|   -4.572839|   -4.724871|   -4.462526|   -4.177089|  -11.361839|    1.277128|
|         297|  6.6681e+00|   -4.324254|   -4.573410|   -4.723801|   -4.464900|   -4.176770|  -11.362726|    1.271979|
|         298|  6.6676e+00|   -4.323262|   -4.573807|   -4.722935|   -4.466741|   -4.176362|  -11.363659|    1.266935|
|         299|  6.6671e+00|   -4.322459|   -4.573993|   -4.722259|   -4.467995|   -4.175848|  -11.364650|    1.261995|
|         300|  6.6666e+00|   -4.321838|   -4.573948|   -4.721767|   -4.468635|   -4.175227|  -11.365689|    1.257161|
+-----------------------------------------------------------------------+
|        File Writing Summary       |              Filename             |
+-----------------------------------------------------------------------+
|SU2 binary restart                 |restart_flow.dat                   |
|Paraview                           |flow.vtu                           |
|Paraview surface                   |surface_flow.vtu                   |
+-----------------------------------------------------------------------+
+--------------------------------------------------------------------------------------------------------------------+
|  Inner_Iter|   Time(sec)|    rms[Rho]|   rms[RhoU]|   rms[RhoV]|   rms[RhoW]|   rms[RhoE]|     rms[nu]|          CD|
+--------------------------------------------------------------------------------------------------------------------+
|         301|  6.7399e+00|   -4.321389|   -4.573657|   -4.721446|   -4.468638|   -4.174492|  -11.366735|    1.252433|
|         302|  6.7402e+00|   -4.321084|   -4.573108|   -4.721268|   -4.468014|   -4.173636|  -11.367751|    1.247811|
|         303|  6.7402e+00|   -4.320921|   -4.572298|   -4.721219|   -4.466783|   -4.172664|  -11.368668|    1.243298|
|         304|  6.7399e+00|   -4.320909|   -4.571243|   -4.721304|   -4.464985|   -4.171593|  -11.369451|    1.238893|
|         305|  6.7394e+00|   -4.321030|   -4.569950|   -4.721494|   -4.462681|   -4.170435|  -11.370057|    1.234597|
|         306|  6.7389e+00|   -4.321278|   -4.568439|   -4.721780|   -4.459949|   -4.169211|  -11.370447|    1.230413|
|         307|  6.7387e+00|   -4.321657|   -4.566739|   -4.722151|   -4.456863|   -4.167943|  -11.370634|    1.226340|
|         308|  6.7383e+00|   -4.322193|   -4.564909|   -4.722614|   -4.453521|   -4.166686|  -11.370676|    1.222381|
|         309|  6.7380e+00|   -4.322885|   -4.562984|   -4.723172|   -4.450010|   -4.165464|  -11.370616|    1.218536|
|         310|  6.7376e+00|   -4.323725|   -4.561004|   -4.723812|   -4.446412|   -4.164298|  -11.370489|    1.214806|
|         311|  6.7375e+00|   -4.324723|   -4.559018|   -4.724544|   -4.442815|   -4.163226|  -11.370301|    1.211191|
|         312|  6.7370e+00|   -4.325879|   -4.557069|   -4.725359|   -4.439278|   -4.162272|  -11.370132|    1.207692|
|         313|  6.7363e+00|   -4.327191|   -4.555190|   -4.726253|   -4.435871|   -4.161463|  -11.370030|    1.204308|
|         314|  6.7358e+00|   -4.328657|   -4.553409|   -4.727239|   -4.432632|   -4.160813|  -11.369973|    1.201039|
|         315|  6.7354e+00|   -4.330279|   -4.551772|   -4.728340|   -4.429616|   -4.160344|  -11.369936|    1.197885|
|         316|  6.7350e+00|   -4.332046|   -4.550302|   -4.729554|   -4.426862|   -4.160068|  -11.369898|    1.194843|
|         317|  6.7344e+00|   -4.333950|   -4.549013|   -4.730887|   -4.424378|   -4.159987|  -11.369871|    1.191913|
|         318|  6.7337e+00|   -4.335996|   -4.547929|   -4.732345|   -4.422205|   -4.160125|  -11.369801|    1.189093|
|         319|  6.7332e+00|   -4.338185|   -4.547080|   -4.733933|   -4.420368|   -4.160498|  -11.369621|    1.186380|
|         320|  6.7328e+00|   -4.340528|   -4.546491|   -4.735672|   -4.418886|   -4.161127|  -11.369333|    1.183774|
|         321|  6.7325e+00|   -4.343034|   -4.546192|   -4.737576|   -4.417771|   -4.162027|  -11.368944|    1.181272|
|         322|  6.7319e+00|   -4.345667|   -4.546179|   -4.739615|   -4.417037|   -4.163180|  -11.368471|    1.178873|
|         323|  6.7313e+00|   -4.348434|   -4.546457|   -4.741817|   -4.416659|   -4.164582|  -11.367918|    1.176576|
|         324|  6.7306e+00|   -4.351327|   -4.547023|   -4.744182|   -4.416630|   -4.166226|  -11.367300|    1.174378|
|         325|  6.7300e+00|   -4.354351|   -4.547880|   -4.746705|   -4.416949|   -4.168118|  -11.366628|    1.172279|
|         326|  6.7295e+00|   -4.357483|   -4.549005|   -4.749365|   -4.417589|   -4.170230|  -11.365886|    1.170278|
|         327|  6.7290e+00|   -4.360717|   -4.550393|   -4.752155|   -4.418545|   -4.172557|  -11.365082|    1.168373|
|         328|  6.7286e+00|   -4.364054|   -4.552050|   -4.755068|   -4.419820|   -4.175105|  -11.364215|    1.166563|
|         329|  6.7280e+00|   -4.367487|   -4.553967|   -4.758095|   -4.421409|   -4.177869|  -11.363266|    1.164848|
|         330|  6.7275e+00|   -4.371014|   -4.556144|   -4.761237|   -4.423301|   -4.180846|  -11.362224|    1.163226|
|         331|  6.7269e+00|   -4.374621|   -4.558567|   -4.764479|   -4.425483|   -4.184019|  -11.361087|    1.161695|
|         332|  6.7262e+00|   -4.378299|   -4.561225|   -4.767804|   -4.427941|   -4.187373|  -11.359874|    1.160255|
|         333|  6.7259e+00|   -4.382047|   -4.564116|   -4.771202|   -4.430662|   -4.190903|  -11.358616|    1.158905|
|         334|  6.7255e+00|   -4.385858|   -4.567225|   -4.774661|   -4.433630|   -4.194597|  -11.357346|    1.157643|
|         335|  6.7251e+00|   -4.389720|   -4.570540|   -4.778170|   -4.436836|   -4.198444|  -11.356063|    1.156469|
|         336|  6.7245e+00|   -4.393630|   -4.574056|   -4.781713|   -4.440265|   -4.202434|  -11.354797|    1.155382|
|         337|  6.7242e+00|   -4.397593|   -4.577764|   -4.785304|   -4.443904|   -4.206564|  -11.353533|    1.154381|
|         338|  6.7237e+00|   -4.401597|   -4.581655|   -4.788926|   -4.447735|   -4.210818|  -11.352269|    1.153466|
|         339|  6.7235e+00|   -4.405636|   -4.585720|   -4.792576|   -4.451744|   -4.215183|  -11.350941|    1.152637|
|         340|  6.7232e+00|   -4.409708|   -4.589960|   -4.796249|   -4.455911|   -4.219651|  -11.349558|    1.151893|
|         341|  6.7227e+00|   -4.413802|   -4.594359|   -4.799940|   -4.460224|   -4.224205|  -11.348136|    1.151235|
|         342|  6.7222e+00|   -4.417910|   -4.598913|   -4.803643|   -4.464666|   -4.228837|  -11.346629|    1.150661|
|         343|  6.7217e+00|   -4.422022|   -4.603608|   -4.807347|   -4.469219|   -4.233531|  -11.345003|    1.150171|
|         344|  6.7211e+00|   -4.426126|   -4.608434|   -4.811039|   -4.473869|   -4.238278|  -11.343244|    1.149765|
|         345|  6.7206e+00|   -4.430209|   -4.613391|   -4.814703|   -4.478602|   -4.243063|  -11.341354|    1.149440|
|         346|  6.7201e+00|   -4.434277|   -4.618472|   -4.818355|   -4.483398|   -4.247885|  -11.339310|    1.149195|
|         347|  6.7197e+00|   -4.438309|   -4.623663|   -4.821983|   -4.488241|   -4.252723|  -11.337142|    1.149029|
|         348|  6.7192e+00|   -4.442295|   -4.628954|   -4.825581|   -4.493112|   -4.257566|  -11.334851|    1.148941|
|         349|  6.7184e+00|   -4.446224|   -4.634335|   -4.829138|   -4.497991|   -4.262401|  -11.332451|    1.148928|
|         350|  6.7183e+00|   -4.450086|   -4.639799|   -4.832648|   -4.502863|   -4.267216|  -11.329918|    1.148990|
|         351|  6.7176e+00|   -4.453863|   -4.645339|   -4.836100|   -4.507708|   -4.271995|  -11.327223|    1.149126|
|         352|  6.7171e+00|   -4.457548|   -4.650944|   -4.839493|   -4.512506|   -4.276722|  -11.324373|    1.149335|
|         353|  6.7166e+00|   -4.461129|   -4.656605|   -4.842821|   -4.517242|   -4.281383|  -11.321282|    1.149619|
|         354|  6.7160e+00|   -4.464593|   -4.662312|   -4.846070|   -4.521899|   -4.285964|  -11.317940|    1.149977|
|         355|  6.7156e+00|   -4.467926|   -4.668046|   -4.849228|   -4.526459|   -4.290445|  -11.314389|    1.150410|
|         356|  6.7151e+00|   -4.471114|   -4.673790|   -4.852282|   -4.530901|   -4.294810|  -11.310631|    1.150919|
|         357|  6.7147e+00|   -4.474144|   -4.679529|   -4.855215|   -4.535210|   -4.299043|  -11.306669|    1.151504|
|         358|  6.7143e+00|   -4.477007|   -4.685250|   -4.858021|   -4.539370|   -4.303132|  -11.302527|    1.152165|
|         359|  6.7138e+00|   -4.479688|   -4.690929|   -4.860691|   -4.543362|   -4.307056|  -11.298216|    1.152899|
|         360|  6.7133e+00|   -4.482176|   -4.696547|   -4.863214|   -4.547169|   -4.310801|  -11.293723|    1.153705|
|         361|  6.7128e+00|   -4.484458|   -4.702084|   -4.865582|   -4.550776|   -4.314350|  -11.289107|    1.154577|
|         362|  6.7122e+00|   -4.486522|   -4.707516|   -4.867785|   -4.554167|   -4.317686|  -11.284468|    1.155509|
|         363|  6.7115e+00|   -4.488358|   -4.712822|   -4.869818|   -4.557330|   -4.320797|  -11.279831|    1.156494|
|         364|  6.7109e+00|   -4.489952|   -4.717976|   -4.871670|   -4.560252|   -4.323665|  -11.275161|    1.157522|
|         365|  6.7101e+00|   -4.491284|   -4.722939|   -4.873331|   -4.562919|   -4.326269|  -11.270370|    1.158585|
|         366|  6.7095e+00|   -4.492353|   -4.727694|   -4.874799|   -4.565322|   -4.328599|  -11.265404|    1.159673|
|         367|  6.7091e+00|   -4.493158|   -4.732224|   -4.876071|   -4.567455|   -4.330649|  -11.260291|    1.160780|
|         368|  6.7086e+00|   -4.493692|   -4.736501|   -4.877144|   -4.569305|   -4.332407|  -11.255104|    1.161899|
|         369|  6.7081e+00|   -4.493953|   -4.740502|   -4.878011|   -4.570867|   -4.333863|  -11.249819|    1.163027|
|         370|  6.7075e+00|   -4.493938|   -4.744199|   -4.878668|   -4.572133|   -4.335012|  -11.244458|    1.164162|
|         371|  6.7071e+00|   -4.493649|   -4.747569|   -4.879113|   -4.573100|   -4.335846|  -11.239036|    1.165305|
|         372|  6.7066e+00|   -4.493087|   -4.750593|   -4.879342|   -4.573767|   -4.336365|  -11.233578|    1.166457|
|         373|  6.7061e+00|   -4.492255|   -4.753250|   -4.879361|   -4.574135|   -4.336563|  -11.228067|    1.167621|
|         374|  6.7056e+00|   -4.491155|   -4.755522|   -4.879171|   -4.574209|   -4.336442|  -11.222491|    1.168802|
|         375|  6.7050e+00|   -4.489797|   -4.757393|   -4.878778|   -4.573998|   -4.336006|  -11.216841|    1.170001|
|         376|  6.7045e+00|   -4.488192|   -4.758854|   -4.878189|   -4.573512|   -4.335265|  -11.211102|    1.171224|
|         377|  6.7039e+00|   -4.486348|   -4.759901|   -4.877411|   -4.572758|   -4.334226|  -11.205297|    1.172473|
|         378|  6.7035e+00|   -4.484286|   -4.760533|   -4.876455|   -4.571754|   -4.332909|  -11.199470|    1.173751|
|         379|  6.7040e+00|   -4.482017|   -4.760756|   -4.875333|   -4.570511|   -4.331325|  -11.193662|    1.175060|
|         380|  6.7040e+00|   -4.479550|   -4.760579|   -4.874055|   -4.569044|   -4.329487|  -11.187744|    1.176404|
|         381|  6.7043e+00|   -4.476902|   -4.760018|   -4.872632|   -4.567370|   -4.327415|  -11.181679|    1.177782|
|         382|  6.7039e+00|   -4.474090|   -4.759091|   -4.871078|   -4.565507|   -4.325127|  -11.175522|    1.179197|
|         383|  6.7034e+00|   -4.471125|   -4.757819|   -4.869404|   -4.563471|   -4.322641|  -11.169254|    1.180650|
|         384|  6.7033e+00|   -4.468022|   -4.756233|   -4.867620|   -4.561279|   -4.319974|  -11.162869|    1.182142|
|         385|  6.7028e+00|   -4.464793|   -4.754355|   -4.865732|   -4.558947|   -4.317143|  -11.156411|    1.183672|
|         386|  6.7023e+00|   -4.461456|   -4.752213|   -4.863752|   -4.556485|   -4.314164|  -11.149851|    1.185241|
|         387|  6.7019e+00|   -4.458024|   -4.749835|   -4.861687|   -4.553904|   -4.311054|  -11.143169|    1.186848|
|         388|  6.7016e+00|   -4.454516|   -4.747251|   -4.859547|   -4.551221|   -4.307834|  -11.136351|    1.188493|
|         389|  6.7011e+00|   -4.450942|   -4.744489|   -4.857341|   -4.548442|   -4.304517|  -11.129390|    1.190175|
|         390|  6.7004e+00|   -4.447314|   -4.741578|   -4.855075|   -4.545578|   -4.301115|  -11.122379|    1.191891|
|         391|  6.6998e+00|   -4.443639|   -4.738545|   -4.852758|   -4.542638|   -4.297642|  -11.115418|    1.193642|
|         392|  6.6993e+00|   -4.439930|   -4.735418|   -4.850397|   -4.539629|   -4.294110|  -11.108465|    1.195424|
|         393|  6.6990e+00|   -4.436194|   -4.732221|   -4.847997|   -4.536563|   -4.290530|  -11.101512|    1.197237|
|         394|  6.6984e+00|   -4.432446|   -4.728979|   -4.845563|   -4.533454|   -4.286920|  -11.094576|    1.199079|
|         395|  6.6980e+00|   -4.428696|   -4.725712|   -4.843101|   -4.530306|   -4.283286|  -11.087682|    1.200948|
|         396|  6.6976e+00|   -4.424953|   -4.722438|   -4.840620|   -4.527129|   -4.279642|  -11.080794|    1.202843|
|         397|  6.6972e+00|   -4.421227|   -4.719175|   -4.838124|   -4.523931|   -4.275996|  -11.073884|    1.204763|
|         398|  6.6965e+00|   -4.417523|   -4.715935|   -4.835617|   -4.520720|   -4.272357|  -11.066992|    1.206705|
|         399|  6.6961e+00|   -4.413859|   -4.712745|   -4.833105|   -4.517512|   -4.268748|  -11.060101|    1.208670|
|         400|  6.6956e+00|   -4.410246|   -4.709620|   -4.830598|   -4.514313|   -4.265179|  -11.053236|    1.210655|
|         401|  6.6953e+00|   -4.406689|   -4.706564|   -4.828106|   -4.511134|   -4.261655|  -11.046371|    1.212660|
|         402|  6.6948e+00|   -4.403196|   -4.703587|   -4.825629|   -4.507986|   -4.258188|  -11.039541|    1.214684|
|         403|  6.6944e+00|   -4.399776|   -4.700699|   -4.823167|   -4.504877|   -4.254786|  -11.032768|    1.216725|
|         404|  6.6940e+00|   -4.396438|   -4.697908|   -4.820722|   -4.501825|   -4.251464|  -11.026051|    1.218785|
|         405|  6.6935e+00|   -4.393186|   -4.695221|   -4.818294|   -4.498842|   -4.248230|  -11.019367|    1.220861|
|         406|  6.6929e+00|   -4.390022|   -4.692638|   -4.815886|   -4.495932|   -4.245085|  -11.012708|    1.222954|
|         407|  6.6925e+00|   -4.386947|   -4.690170|   -4.813498|   -4.493103|   -4.242036|  -11.006046|    1.225063|
|         408|  6.6920e+00|   -4.383967|   -4.687820|   -4.811134|   -4.490365|   -4.239094|  -10.999311|    1.227187|
|         409|  6.6916e+00|   -4.381081|   -4.685594|   -4.808802|   -4.487720|   -4.236259|  -10.992567|    1.229325|
|         410|  6.6912e+00|   -4.378285|   -4.683488|   -4.806508|   -4.485174|   -4.233529|  -10.985817|    1.231477|
|         411|  6.6910e+00|   -4.375576|   -4.681508|   -4.804254|   -4.482728|   -4.230906|  -10.979081|    1.233642|
|         412|  6.6906e+00|   -4.372954|   -4.679654|   -4.802038|   -4.480381|   -4.228392|  -10.972361|    1.235818|
|         413|  6.6900e+00|   -4.370413|   -4.677928|   -4.799854|   -4.478130|   -4.225981|  -10.965654|    1.238003|
|         414|  6.6896e+00|   -4.367948|   -4.676333|   -4.797700|   -4.475973|   -4.223672|  -10.959035|    1.240198|
|         415|  6.6891e+00|   -4.365557|   -4.674869|   -4.795578|   -4.473906|   -4.221462|  -10.952521|    1.242399|
|         416|  6.6889e+00|   -4.363230|   -4.673538|   -4.793478|   -4.471921|   -4.219338|  -10.946050|    1.244605|
|         417|  6.6887e+00|   -4.360959|   -4.672338|   -4.791395|   -4.470007|   -4.217292|  -10.939563|    1.246815|
|         418|  6.6886e+00|   -4.358742|   -4.671269|   -4.789331|   -4.468164|   -4.215322|  -10.933087|    1.249027|
|         419|  6.6884e+00|   -4.356574|   -4.670321|   -4.787288|   -4.466378|   -4.213419|  -10.926598|    1.251240|
|         420|  6.6879e+00|   -4.354454|   -4.669492|   -4.785270|   -4.464651|   -4.211583|  -10.920094|    1.253451|
|         421|  6.6877e+00|   -4.352380|   -4.668783|   -4.783275|   -4.462975|   -4.209810|  -10.913586|    1.255659|
|         422|  6.6874e+00|   -4.350362|   -4.668194|   -4.781309|   -4.461351|   -4.208109|  -10.907099|    1.257863|
|         423|  6.6871e+00|   -4.348389|   -4.667703|   -4.779375|   -4.459773|   -4.206466|  -10.900655|    1.260061|
|         424|  6.6869e+00|   -4.346451|   -4.667299|   -4.777470|   -4.458229|   -4.204865|  -10.894266|    1.262252|
|         425|  6.6866e+00|   -4.344565|   -4.666978|   -4.775598|   -4.456728|   -4.203320|  -10.887961|    1.264433|
|         426|  6.6864e+00|   -4.342722|   -4.666729|   -4.773764|   -4.455262|   -4.201818|  -10.881739|    1.266605|
|         427|  6.6862e+00|   -4.340927|   -4.666546|   -4.771967|   -4.453834|   -4.200361|  -10.875571|    1.268765|
|         428|  6.6859e+00|   -4.339185|   -4.666413|   -4.770214|   -4.452447|   -4.198951|  -10.869456|    1.270912|
|         429|  6.6855e+00|   -4.337499|   -4.666316|   -4.768510|   -4.451102|   -4.197589|  -10.863389|    1.273045|
|         430|  6.6850e+00|   -4.335878|   -4.666240|   -4.766859|   -4.449808|   -4.196285|  -10.857324|    1.275162|
|         431|  6.6847e+00|   -4.334320|   -4.666169|   -4.765257|   -4.448557|   -4.195028|  -10.851233|    1.277263|
|         432|  6.6843e+00|   -4.332829|   -4.666092|   -4.763699|   -4.447354|   -4.193823|  -10.845112|    1.279347|
|         433|  6.6840e+00|   -4.331408|   -4.666001|   -4.762180|   -4.446199|   -4.192674|  -10.838984|    1.281412|
|         434|  6.6837e+00|   -4.330057|   -4.665890|   -4.760689|   -4.445092|   -4.191580|  -10.832871|    1.283457|
|         435|  6.6834e+00|   -4.328774|   -4.665755|   -4.759230|   -4.444027|   -4.190537|  -10.826770|    1.285482|
|         436|  6.6830e+00|   -4.327553|   -4.665585|   -4.757798|   -4.443000|   -4.189541|  -10.820650|    1.287486|
|         437|  6.6824e+00|   -4.326396|   -4.665383|   -4.756394|   -4.442016|   -4.188598|  -10.814522|    1.289467|
|         438|  6.6820e+00|   -4.325295|   -4.665139|   -4.755018|   -4.441063|   -4.187700|  -10.808355|    1.291424|
|         439|  6.6817e+00|   -4.324246|   -4.664840|   -4.753672|   -4.440136|   -4.186845|  -10.802195|    1.293357|
|         440|  6.6812e+00|   -4.323248|   -4.664492|   -4.752355|   -4.439237|   -4.186034|  -10.796074|    1.295266|
|         441|  6.6808e+00|   -4.322304|   -4.664085|   -4.751073|   -4.438366|   -4.185269|  -10.789994|    1.297148|
|         442|  6.6804e+00|   -4.321415|   -4.663614|   -4.749828|   -4.437528|   -4.184556|  -10.783896|    1.299004|
|         443|  6.6800e+00|   -4.320578|   -4.663071|   -4.748614|   -4.436719|   -4.183886|  -10.777759|    1.300832|
|         444|  6.6796e+00|   -4.319784|   -4.662443|   -4.747422|   -4.435931|   -4.183249|  -10.771532|    1.302632|
|         445|  6.6792e+00|   -4.319030|   -4.661712|   -4.746234|   -4.435165|   -4.182640|  -10.765213|    1.304403|
|         446|  6.6788e+00|   -4.318323|   -4.660863|   -4.745043|   -4.434428|   -4.182070|  -10.758790|    1.306145|
|         447|  6.6785e+00|   -4.317664|   -4.659861|   -4.743846|   -4.433727|   -4.181537|  -10.752284|    1.307857|
|         448|  6.6782e+00|   -4.317052|   -4.658671|   -4.742646|   -4.433066|   -4.181044|  -10.745712|    1.309538|
|         449|  6.6780e+00|   -4.316488|   -4.657254|   -4.741442|   -4.432448|   -4.180593|  -10.739059|    1.311187|
|         450|  6.6776e+00|   -4.315977|   -4.655572|   -4.740237|   -4.431880|   -4.180192|  -10.732358|    1.312803|
+-----------------------------------------------------------------------+
|        File Writing Summary       |              Filename             |
+-----------------------------------------------------------------------+
|SU2 binary restart                 |restart_flow.dat                   |
|Paraview                           |flow.vtu                           |
|Paraview surface                   |surface_flow.vtu                   |
+-----------------------------------------------------------------------+
+--------------------------------------------------------------------------------------------------------------------+
|  Inner_Iter|   Time(sec)|    rms[Rho]|   rms[RhoU]|   rms[RhoV]|   rms[RhoW]|   rms[RhoE]|     rms[nu]|          CD|
+--------------------------------------------------------------------------------------------------------------------+
|         451|  6.7326e+00|   -4.315523|   -4.653582|   -4.739026|   -4.431368|   -4.179849|  -10.725565|    1.314386|
|         452|  6.7357e+00|   -4.315127|   -4.651233|   -4.737800|   -4.430908|   -4.179559|  -10.718687|    1.315934|
|         453|  6.7365e+00|   -4.314796|   -4.648478|   -4.736544|   -4.430504|   -4.179333|  -10.711753|    1.317447|
|         454|  6.7367e+00|   -4.314520|   -4.645270|   -4.735239|   -4.430140|   -4.179155|  -10.704784|    1.318923|
|         455|  6.7365e+00|   -4.314309|   -4.641558|   -4.733868|   -4.429812|   -4.179034|  -10.697778|    1.320362|
|         456|  6.7368e+00|   -4.314150|   -4.637260|   -4.732407|   -4.429494|   -4.178953|  -10.690742|    1.321765|
|         457|  6.7367e+00|   -4.314036|   -4.632305|   -4.730828|   -4.429158|   -4.178901|  -10.683689|    1.323129|
|         458|  6.7367e+00|   -4.313960|   -4.626616|   -4.729110|   -4.428771|   -4.178870|  -10.676635|    1.324458|
|         459|  6.7363e+00|   -4.313906|   -4.620105|   -4.727217|   -4.428279|   -4.178838|  -10.669616|    1.325751|
|         460|  6.7360e+00|   -4.313873|   -4.612694|   -4.725117|   -4.427620|   -4.178796|  -10.662565|    1.327009|
|         461|  6.7356e+00|   -4.313804|   -4.604310|   -4.722760|   -4.426675|   -4.178670|  -10.655388|    1.328236|
|         462|  6.7355e+00|   -4.313649|   -4.594876|   -4.720101|   -4.425305|   -4.178392|  -10.648044|    1.329433|
|         463|  6.7351e+00|   -4.313346|   -4.584358|   -4.717091|   -4.423343|   -4.177875|  -10.640559|    1.330602|
|         464|  6.7350e+00|   -4.312827|   -4.572749|   -4.713684|   -4.420602|   -4.177021|  -10.632954|    1.331745|
|         465|  6.7347e+00|   -4.312012|   -4.560098|   -4.709838|   -4.416871|   -4.175710|  -10.625233|    1.332862|
|         466|  6.7346e+00|   -4.310817|   -4.546422|   -4.705503|   -4.411950|   -4.173819|  -10.617415|    1.333955|
|         467|  6.7345e+00|   -4.309168|   -4.531866|   -4.700628|   -4.405702|   -4.171249|  -10.609512|    1.335023|
|         468|  6.7344e+00|   -4.306976|   -4.516666|   -4.695174|   -4.398035|   -4.167899|  -10.601556|    1.336067|
|         469|  6.7341e+00|   -4.304154|   -4.500897|   -4.689101|   -4.388832|   -4.163656|  -10.593568|    1.337084|
|         470|  6.7338e+00|   -4.300635|   -4.484692|   -4.682379|   -4.378046|   -4.158438|  -10.585623|    1.338075|
|         471|  6.7337e+00|   -4.296344|   -4.468124|   -4.675010|   -4.365644|   -4.152128|  -10.577751|    1.339037|
|         472|  6.7335e+00|   -4.291209|   -4.451072|   -4.666994|   -4.351606|   -4.144609|  -10.569934|    1.339969|
|         473|  6.7335e+00|   -4.285216|   -4.433454|   -4.658374|   -4.335912|   -4.135771|  -10.562161|    1.340870|
|         474|  6.7332e+00|   -4.278377|   -4.415805|   -4.649268|   -4.319008|   -4.125690|  -10.554428|    1.341737|
|         475|  6.7329e+00|   -4.270717|   -4.398097|   -4.639723|   -4.301205|   -4.114436|  -10.546701|    1.342570|
|         476|  6.7326e+00|   -4.262300|   -4.380288|   -4.629801|   -4.282836|   -4.102145|  -10.538941|    1.343367|
|         477|  6.7279e+00|   -4.253151|   -4.362202|   -4.619458|   -4.264012|   -4.088845|  -10.543258|    1.343392|
|         478|  6.7234e+00|   -4.252899|   -4.361659|   -4.619262|   -4.263451|   -4.088537|  -10.542824|    1.343422|
|         479|  6.7188e+00|   -4.252603|   -4.361007|   -4.619021|   -4.262786|   -4.088175|  -10.542303|    1.343457|
|         480|  6.7149e+00|   -4.252255|   -4.360224|   -4.618724|   -4.262002|   -4.087755|  -10.541677|    1.343500|
|         481|  6.7111e+00|   -4.251848|   -4.359284|   -4.618357|   -4.261078|   -4.087270|  -10.540924|    1.343550|
|         482|  6.7072e+00|   -4.251373|   -4.358160|   -4.617902|   -4.259992|   -4.086712|  -10.540021|    1.343611|
|         483|  6.7035e+00|   -4.250821|   -4.356813|   -4.617335|   -4.258718|   -4.086074|  -10.538935|    1.343684|
|         484|  6.6998e+00|   -4.250181|   -4.355197|   -4.616622|   -4.257223|   -4.085348|  -10.537630|    1.343771|
|         485|  6.6962e+00|   -4.249445|   -4.353254|   -4.615722|   -4.255474|   -4.084527|  -10.536064|    1.343876|
|         486|  6.6933e+00|   -4.248602|   -4.350906|   -4.614584|   -4.253420|   -4.083598|  -10.534185|    1.344000|
|         487|  6.6904e+00|   -4.247632|   -4.348093|   -4.613139|   -4.251027|   -4.082551|  -10.531935|    1.344148|
|         488|  6.6876e+00|   -4.246512|   -4.344734|   -4.611305|   -4.248240|   -4.081369|  -10.529238|    1.344324|
|         489|  6.6848e+00|   -4.245196|   -4.340729|   -4.608983|   -4.244986|   -4.080001|  -10.526015|    1.344534|
|         490|  6.6830e+00|   -4.243589|   -4.335936|   -4.606046|   -4.241141|   -4.078333|  -10.522176|    1.344782|
|         491|  6.6811e+00|   -4.241541|   -4.330202|   -4.602355|   -4.236538|   -4.076170|  -10.517623|    1.345074|
|         492|  6.6792e+00|   -4.238803|   -4.323466|   -4.597772|   -4.230941|   -4.073175|  -10.512256|    1.345417|
|         493|  6.6783e+00|   -4.234967|   -4.315519|   -4.592134|   -4.223956|   -4.068775|  -10.505953|    1.345816|
|         494|  6.6774e+00|   -4.229464|   -4.306026|   -4.585225|   -4.214975|   -4.062122|  -10.498590|    1.346274|
|         495|  6.6773e+00|   -4.221716|   -4.294781|   -4.576846|   -4.203584|   -4.052412|  -10.490037|    1.346794|
|         496|  6.6771e+00|   -4.211140|   -4.281316|   -4.566552|   -4.188992|   -4.038695|  -10.480840|    1.347336|
|         497|  6.6771e+00|   -4.198477|   -4.266386|   -4.554698|   -4.172076|   -4.021933|  -10.472042|    1.347829|
|         498|  6.6772e+00|   -4.186135|   -4.252362|   -4.542875|   -4.155861|   -4.005604|  -10.462980|    1.348273|
|         499|  6.6772e+00|   -4.174731|   -4.239300|   -4.530995|   -4.140949|   -3.990581|  -10.453677|    1.348667|
|         500|  6.6772e+00|   -4.164493|   -4.226907|   -4.519008|   -4.127289|   -3.977085|  -10.444179|    1.349014|
|         501|  6.6771e+00|   -4.155584|   -4.215173|   -4.507192|   -4.114943|   -3.965200|  -10.434496|    1.349316|
|         502|  6.6771e+00|   -4.147542|   -4.203700|   -4.495549|   -4.103446|   -3.954395|  -10.424662|    1.349576|
|         503|  6.6770e+00|   -4.140187|   -4.192567|   -4.484370|   -4.092857|   -3.944526|  -10.414736|    1.349794|
|         504|  6.6771e+00|   -4.133366|   -4.181722|   -4.473770|   -4.083153|   -3.935436|  -10.404686|    1.349974|
|         505|  6.6771e+00|   -4.127100|   -4.171466|   -4.463946|   -4.074557|   -3.927203|  -10.394590|    1.350117|
|         506|  6.6774e+00|   -4.121251|   -4.161872|   -4.454993|   -4.067028|   -3.919766|  -10.384507|    1.350225|
|         507|  6.6773e+00|   -4.115982|   -4.153207|   -4.447147|   -4.060891|   -3.913351|  -10.374485|    1.350298|
|         508|  6.6772e+00|   -4.111415|   -4.145668|   -4.440392|   -4.056154|   -3.908064|  -10.364597|    1.350340|
|         509|  6.6773e+00|   -4.107567|   -4.139162|   -4.434742|   -4.052670|   -3.903849|  -10.354893|    1.350351|
|         510|  6.6775e+00|   -4.104521|   -4.133882|   -4.430365|   -4.050305|   -3.900656|  -10.345427|    1.350332|
|         511|  6.6778e+00|   -4.102461|   -4.129777|   -4.427320|   -4.049096|   -3.898561|  -10.336218|    1.350286|
|         512|  6.6779e+00|   -4.101388|   -4.126806|   -4.425579|   -4.048940|   -3.897544|  -10.327297|    1.350212|
|         513|  6.6780e+00|   -4.101488|   -4.125288|   -4.425321|   -4.049953|   -3.897736|  -10.318682|    1.350111|
|         514|  6.6781e+00|   -4.102824|   -4.125223|   -4.426516|   -4.052325|   -3.899239|  -10.310411|    1.349983|
|         515|  6.6784e+00|   -4.105127|   -4.126193|   -4.429098|   -4.055628|   -3.901695|  -10.302547|    1.349826|
|         516|  6.6785e+00|   -4.108381|   -4.128273|   -4.433035|   -4.059870|   -3.905073|  -10.295140|    1.349639|
|         517|  6.6786e+00|   -4.112505|   -4.131457|   -4.438376|   -4.064909|   -3.909241|  -10.288133|    1.349419|
|         518|  6.6786e+00|   -4.117463|   -4.135665|   -4.444891|   -4.070715|   -3.914178|  -10.281528|    1.349165|
|         519|  6.6785e+00|   -4.123202|   -4.140869|   -4.452354|   -4.077278|   -3.919867|  -10.275314|    1.348873|
|         520|  6.6785e+00|   -4.129689|   -4.147098|   -4.460613|   -4.084620|   -3.926325|  -10.269506|    1.348540|
|         521|  6.6785e+00|   -4.136838|   -4.154336|   -4.469554|   -4.092676|   -3.933490|  -10.264035|    1.348165|
|         522|  6.6785e+00|   -4.144518|   -4.162540|   -4.479064|   -4.101296|   -3.941249|  -10.258888|    1.347745|
|         523|  6.6787e+00|   -4.152736|   -4.171785|   -4.488886|   -4.110592|   -3.949699|  -10.254059|    1.347277|
|         524|  6.6787e+00|   -4.161364|   -4.182116|   -4.498791|   -4.120444|   -3.958738|  -10.249545|    1.346761|
|         525|  6.6790e+00|   -4.170285|   -4.193537|   -4.508730|   -4.130849|   -3.968297|  -10.245313|    1.346194|
|         526|  6.6788e+00|   -4.179369|   -4.205904|   -4.518405|   -4.141740|   -3.978290|  -10.241350|    1.345577|
|         527|  6.6786e+00|   -4.188505|   -4.219101|   -4.527662|   -4.153016|   -3.988614|  -10.237668|    1.344908|
|         528|  6.6784e+00|   -4.197598|   -4.233065|   -4.536518|   -4.164603|   -3.999156|  -10.234280|    1.344189|
|         529|  6.6783e+00|   -4.206577|   -4.247763|   -4.544934|   -4.176408|   -4.009832|  -10.231184|    1.343420|
|         530|  6.6783e+00|   -4.215356|   -4.263042|   -4.552869|   -4.188304|   -4.020527|  -10.228369|    1.342601|
|         531|  6.6782e+00|   -4.223899|   -4.278721|   -4.560331|   -4.200181|   -4.031145|  -10.225792|    1.341734|
|         532|  6.6781e+00|   -4.232240|   -4.294743|   -4.567550|   -4.212014|   -4.041637|  -10.223441|    1.340819|
|         533|  6.6780e+00|   -4.240366|   -4.310941|   -4.574556|   -4.223713|   -4.051953|  -10.221304|    1.339858|
|         534|  6.6779e+00|   -4.248316|   -4.327190|   -4.581466|   -4.235246|   -4.062072|  -10.219359|    1.338852|
|         535|  6.6777e+00|   -4.256136|   -4.343411|   -4.588397|   -4.246616|   -4.071999|  -10.217586|    1.337803|
|         536|  6.6776e+00|   -4.263885|   -4.359532|   -4.595441|   -4.257843|   -4.081757|  -10.215980|    1.336714|
|         537|  6.6773e+00|   -4.271617|   -4.375458|   -4.602662|   -4.268947|   -4.091376|  -10.214554|    1.335585|
|         538|  6.6773e+00|   -4.279365|   -4.391124|   -4.610088|   -4.279945|   -4.100878|  -10.213298|    1.334421|
[...]
|        9349|  6.7693e+00|   -7.879812|   -7.987777|   -8.215912|   -7.878246|   -7.741709|   -9.098648|    1.265162|
|        9350|  6.7692e+00|   -7.879896|   -7.987915|   -8.216061|   -7.878360|   -7.741784|   -9.098580|    1.265161|
|        9351|  6.7692e+00|   -7.879988|   -7.988065|   -8.216216|   -7.878481|   -7.741864|   -9.098509|    1.265160|
|        9352|  6.7692e+00|   -7.880086|   -7.988226|   -8.216378|   -7.878611|   -7.741950|   -9.098437|    1.265159|
|        9353|  6.7692e+00|   -7.880192|   -7.988399|   -8.216546|   -7.878748|   -7.742040|   -9.098363|    1.265158|
|        9354|  6.7692e+00|   -7.880306|   -7.988584|   -8.216721|   -7.878894|   -7.742139|   -9.098289|    1.265156|
|        9355|  6.7691e+00|   -7.880428|   -7.988781|   -8.216902|   -7.879048|   -7.742243|   -9.098214|    1.265155|
|        9356|  6.7691e+00|   -7.880561|   -7.988991|   -8.217092|   -7.879213|   -7.742356|   -9.098140|    1.265154|
|        9357|  6.7691e+00|   -7.880702|   -7.989213|   -8.217288|   -7.879387|   -7.742477|   -9.098067|    1.265153|
|        9358|  6.7690e+00|   -7.880852|   -7.989448|   -8.217492|   -7.879569|   -7.742604|   -9.097995|    1.265152|
|        9359|  6.7690e+00|   -7.881011|   -7.989695|   -8.217703|   -7.879762|   -7.742739|   -9.097925|    1.265151|
|        9360|  6.7690e+00|   -7.881180|   -7.989955|   -8.217921|   -7.879964|   -7.742883|   -9.097857|    1.265150|
|        9361|  6.7690e+00|   -7.881358|   -7.990226|   -8.218147|   -7.880175|   -7.743034|   -9.097792|    1.265149|
|        9362|  6.7689e+00|   -7.881547|   -7.990511|   -8.218380|   -7.880396|   -7.743194|   -9.097731|    1.265148|
|        9363|  6.7689e+00|   -7.881746|   -7.990808|   -8.218621|   -7.880628|   -7.743364|   -9.097673|    1.265147|
|        9364|  6.7689e+00|   -7.881955|   -7.991116|   -8.218869|   -7.880869|   -7.743543|   -9.097620|    1.265146|
|        9365|  6.7689e+00|   -7.882175|   -7.991436|   -8.219123|   -7.881120|   -7.743730|   -9.097572|    1.265144|
|        9366|  6.7688e+00|   -7.882404|   -7.991767|   -8.219385|   -7.881379|   -7.743927|   -9.097529|    1.265143|
|        9367|  6.7688e+00|   -7.882644|   -7.992109|   -8.219653|   -7.881649|   -7.744132|   -9.097492|    1.265142|
|        9368|  6.7688e+00|   -7.882893|   -7.992461|   -8.219927|   -7.881927|   -7.744346|   -9.097461|    1.265141|
|        9369|  6.7688e+00|   -7.883153|   -7.992823|   -8.220206|   -7.882214|   -7.744570|   -9.097438|    1.265140|
|        9370|  6.7688e+00|   -7.883423|   -7.993194|   -8.220492|   -7.882510|   -7.744802|   -9.097422|    1.265139|
|        9371|  6.7687e+00|   -7.883701|   -7.993574|   -8.220782|   -7.882813|   -7.745043|   -9.097413|    1.265138|
|        9372|  6.7687e+00|   -7.883989|   -7.993962|   -8.221078|   -7.883124|   -7.745292|   -9.097413|    1.265137|
|        9373|  6.7687e+00|   -7.884285|   -7.994357|   -8.221378|   -7.883442|   -7.745548|   -9.097422|    1.265135|
|        9374|  6.7687e+00|   -7.884588|   -7.994759|   -8.221681|   -7.883766|   -7.745812|   -9.097439|    1.265134|
|        9375|  6.7687e+00|   -7.884900|   -7.995166|   -8.221989|   -7.884097|   -7.746083|   -9.097466|    1.265133|
|        9376|  6.7686e+00|   -7.885220|   -7.995579|   -8.222298|   -7.884433|   -7.746362|   -9.097503|    1.265132|
|        9377|  6.7686e+00|   -7.885547|   -7.995997|   -8.222610|   -7.884774|   -7.746647|   -9.097550|    1.265131|
|        9378|  6.7686e+00|   -7.885881|   -7.996418|   -8.222924|   -7.885120|   -7.746939|   -9.097608|    1.265130|
|        9379|  6.7686e+00|   -7.886221|   -7.996842|   -8.223238|   -7.885469|   -7.747237|   -9.097676|    1.265129|
|        9380|  6.7685e+00|   -7.886566|   -7.997269|   -8.223553|   -7.885822|   -7.747541|   -9.097755|    1.265128|
|        9381|  6.7685e+00|   -7.886918|   -7.997697|   -8.223868|   -7.886178|   -7.747851|   -9.097845|    1.265127|
|        9382|  6.7685e+00|   -7.887274|   -7.998125|   -8.224182|   -7.886537|   -7.748166|   -9.097947|    1.265125|
|        9383|  6.7685e+00|   -7.887635|   -7.998554|   -8.224494|   -7.886897|   -7.748485|   -9.098060|    1.265124|
|        9384|  6.7684e+00|   -7.887999|   -7.998982|   -8.224805|   -7.887257|   -7.748809|   -9.098185|    1.265123|
|        9385|  6.7684e+00|   -7.888367|   -7.999408|   -8.225113|   -7.887618|   -7.749136|   -9.098322|    1.265122|
|        9386|  6.7684e+00|   -7.888736|   -7.999831|   -8.225418|   -7.887977|   -7.749465|   -9.098471|    1.265121|
|        9387|  6.7684e+00|   -7.889107|   -8.000251|   -8.225719|   -7.888336|   -7.749797|   -9.098632|    1.265120|
|        9388|  6.7683e+00|   -7.889480|   -8.000668|   -8.226015|   -7.888692|   -7.750131|   -9.098804|    1.265119|
|        9389|  6.7683e+00|   -7.889852|   -8.001079|   -8.226307|   -7.889045|   -7.750466|   -9.098989|    1.265117|
|        9390|  6.7683e+00|   -7.890225|   -8.001484|   -8.226594|   -7.889395|   -7.750800|   -9.099185|    1.265116|
|        9391|  6.7683e+00|   -7.890595|   -8.001883|   -8.226875|   -7.889740|   -7.751135|   -9.099393|    1.265115|
|        9392|  6.7683e+00|   -7.890965|   -8.002275|   -8.227150|   -7.890080|   -7.751469|   -9.099613|    1.265114|
|        9393|  6.7682e+00|   -7.891331|   -8.002659|   -8.227419|   -7.890416|   -7.751801|   -9.099844|    1.265113|
|        9394|  6.7682e+00|   -7.891696|   -8.003035|   -8.227680|   -7.890745|   -7.752133|   -9.100086|    1.265112|
|        9395|  6.7682e+00|   -7.892057|   -8.003403|   -8.227935|   -7.891070|   -7.752463|   -9.100340|    1.265111|
|        9396|  6.7681e+00|   -7.892415|   -8.003761|   -8.228182|   -7.891388|   -7.752791|   -9.100604|    1.265110|
|        9397|  6.7681e+00|   -7.892769|   -8.004109|   -8.228422|   -7.891700|   -7.753118|   -9.100878|    1.265108|
|        9398|  6.7681e+00|   -7.893118|   -8.004447|   -8.228654|   -7.892005|   -7.753441|   -9.101162|    1.265107|
|        9399|  6.7681e+00|   -7.893462|   -8.004775|   -8.228879|   -7.892303|   -7.753762|   -9.101456|    1.265106|
|        9400|  6.7680e+00|   -7.893800|   -8.005091|   -8.229095|   -7.892594|   -7.754078|   -9.101759|    1.265105|
|        9401|  6.7680e+00|   -7.894131|   -8.005396|   -8.229304|   -7.892877|   -7.754390|   -9.102071|    1.265104|
|        9402|  6.7680e+00|   -7.894455|   -8.005689|   -8.229505|   -7.893153|   -7.754698|   -9.102392|    1.265103|
|        9403|  6.7680e+00|   -7.894773|   -8.005971|   -8.229697|   -7.893421|   -7.755001|   -9.102719|    1.265102|
|        9404|  6.7680e+00|   -7.895083|   -8.006241|   -8.229881|   -7.893681|   -7.755299|   -9.103054|    1.265101|
|        9405|  6.7679e+00|   -7.895385|   -8.006498|   -8.230058|   -7.893933|   -7.755592|   -9.103396|    1.265100|
|        9406|  6.7679e+00|   -7.895679|   -8.006743|   -8.230226|   -7.894177|   -7.755880|   -9.103744|    1.265098|
|        9407|  6.7679e+00|   -7.895964|   -8.006975|   -8.230387|   -7.894412|   -7.756162|   -9.104097|    1.265097|
|        9408|  6.7679e+00|   -7.896238|   -8.007194|   -8.230540|   -7.894637|   -7.756437|   -9.104454|    1.265096|
|        9409|  6.7678e+00|   -7.896503|   -8.007401|   -8.230685|   -7.894854|   -7.756705|   -9.104816|    1.265095|
|        9410|  6.7678e+00|   -7.896757|   -8.007595|   -8.230824|   -7.895062|   -7.756966|   -9.105181|    1.265094|
|        9411|  6.7678e+00|   -7.897000|   -8.007776|   -8.230956|   -7.895260|   -7.757220|   -9.105548|    1.265093|
|        9412|  6.7678e+00|   -7.897232|   -8.007944|   -8.231081|   -7.895449|   -7.757465|   -9.105917|    1.265092|
|        9413|  6.7678e+00|   -7.897451|   -8.008099|   -8.231199|   -7.895628|   -7.757702|   -9.106288|    1.265091|
|        9414|  6.7677e+00|   -7.897659|   -8.008241|   -8.231311|   -7.895796|   -7.757929|   -9.106658|    1.265090|
|        9415|  6.7677e+00|   -7.897853|   -8.008371|   -8.231418|   -7.895955|   -7.758148|   -9.107028|    1.265089|
|        9416|  6.7677e+00|   -7.898037|   -8.008490|   -8.231520|   -7.896105|   -7.758360|   -9.107397|    1.265087|
|        9417|  6.7677e+00|   -7.898209|   -8.008596|   -8.231616|   -7.896247|   -7.758563|   -9.107763|    1.265086|
|        9418|  6.7676e+00|   -7.898367|   -8.008691|   -8.231708|   -7.896379|   -7.758757|   -9.108127|    1.265085|
|        9419|  6.7676e+00|   -7.898513|   -8.008774|   -8.231795|   -7.896502|   -7.758940|   -9.108487|    1.265084|
|        9420|  6.7676e+00|   -7.898645|   -8.008845|   -8.231878|   -7.896616|   -7.759114|   -9.108842|    1.265083|
|        9421|  6.7675e+00|   -7.898764|   -8.008905|   -8.231957|   -7.896721|   -7.759279|   -9.109192|    1.265082|
|        9422|  6.7675e+00|   -7.898869|   -8.008954|   -8.232032|   -7.896815|   -7.759432|   -9.109536|    1.265081|
|        9423|  6.7675e+00|   -7.898960|   -8.008992|   -8.232103|   -7.896900|   -7.759575|   -9.109872|    1.265080|
|        9424|  6.7675e+00|   -7.899036|   -8.009019|   -8.232171|   -7.896974|   -7.759706|   -9.110201|    1.265079|
|        9425|  6.7674e+00|   -7.899099|   -8.009036|   -8.232236|   -7.897039|   -7.759828|   -9.110522|    1.265078|
|        9426|  6.7674e+00|   -7.899149|   -8.009044|   -8.232298|   -7.897095|   -7.759940|   -9.110833|    1.265077|
|        9427|  6.7674e+00|   -7.899184|   -8.009041|   -8.232357|   -7.897140|   -7.760040|   -9.111135|    1.265076|
|        9428|  6.7673e+00|   -7.899204|   -8.009030|   -8.232414|   -7.897174|   -7.760128|   -9.111426|    1.265075|
|        9429|  6.7673e+00|   -7.899210|   -8.009009|   -8.232469|   -7.897198|   -7.760203|   -9.111705|    1.265073|
|        9430|  6.7673e+00|   -7.899201|   -8.008980|   -8.232522|   -7.897210|   -7.760267|   -9.111972|    1.265072|
|        9431|  6.7672e+00|   -7.899179|   -8.008942|   -8.232573|   -7.897212|   -7.760319|   -9.112227|    1.265071|
|        9432|  6.7672e+00|   -7.899143|   -8.008896|   -8.232623|   -7.897204|   -7.760359|   -9.112469|    1.265070|
|        9433|  6.7672e+00|   -7.899093|   -8.008843|   -8.232671|   -7.897186|   -7.760387|   -9.112697|    1.265069|
|        9434|  6.7672e+00|   -7.899031|   -8.008783|   -8.232719|   -7.897158|   -7.760404|   -9.112910|    1.265068|
|        9435|  6.7671e+00|   -7.898957|   -8.008717|   -8.232766|   -7.897120|   -7.760410|   -9.113109|    1.265067|
|        9436|  6.7671e+00|   -7.898870|   -8.008644|   -8.232812|   -7.897073|   -7.760406|   -9.113292|    1.265066|
|        9437|  6.7671e+00|   -7.898773|   -8.008566|   -8.232858|   -7.897018|   -7.760390|   -9.113459|    1.265065|
|        9438|  6.7670e+00|   -7.898665|   -8.008482|   -8.232904|   -7.896953|   -7.760365|   -9.113611|    1.265064|
|        9439|  6.7670e+00|   -7.898547|   -8.008394|   -8.232949|   -7.896881|   -7.760330|   -9.113746|    1.265063|
|        9440|  6.7670e+00|   -7.898419|   -8.008301|   -8.232994|   -7.896800|   -7.760285|   -9.113864|    1.265062|
|        9441|  6.7670e+00|   -7.898282|   -8.008204|   -8.233040|   -7.896712|   -7.760231|   -9.113966|    1.265061|
|        9442|  6.7669e+00|   -7.898136|   -8.008103|   -8.233085|   -7.896615|   -7.760168|   -9.114050|    1.265060|
|        9443|  6.7669e+00|   -7.897981|   -8.007998|   -8.233130|   -7.896512|   -7.760095|   -9.114117|    1.265059|
|        9444|  6.7669e+00|   -7.897819|   -8.007891|   -8.233175|   -7.896401|   -7.760014|   -9.114167|    1.265058|
|        9445|  6.7669e+00|   -7.897649|   -8.007781|   -8.233220|   -7.896284|   -7.759924|   -9.114199|    1.265057|
|        9446|  6.7669e+00|   -7.897472|   -8.007668|   -8.233265|   -7.896159|   -7.759826|   -9.114214|    1.265056|
|        9447|  6.7668e+00|   -7.897289|   -8.007554|   -8.233309|   -7.896028|   -7.759719|   -9.114211|    1.265054|
|        9448|  6.7668e+00|   -7.897104|   -8.007440|   -8.233354|   -7.895895|   -7.759612|   -9.114191|    1.265053|
|        9449|  6.7668e+00|   -7.896917|   -8.007326|   -8.233398|   -7.895759|   -7.759500|   -9.114154|    1.265052|
|        9450|  6.7668e+00|   -7.896723|   -8.007211|   -8.233440|   -7.895617|   -7.759380|   -9.114100|    1.265051|
+-----------------------------------------------------------------------+
|        File Writing Summary       |              Filename             |
+-----------------------------------------------------------------------+
|SU2 binary restart                 |restart_flow.dat                   |
|Paraview                           |flow.vtu                           |
|Paraview surface                   |surface_flow.vtu                   |
+-----------------------------------------------------------------------+
+--------------------------------------------------------------------------------------------------------------------+
|  Inner_Iter|   Time(sec)|    rms[Rho]|   rms[RhoU]|   rms[RhoV]|   rms[RhoW]|   rms[RhoE]|     rms[nu]|          CD|
+--------------------------------------------------------------------------------------------------------------------+
|        9451|  6.7690e+00|   -7.896524|   -8.007094|   -8.233482|   -7.895470|   -7.759252|   -9.114029|    1.265050|
|        9452|  6.7690e+00|   -7.896321|   -8.006976|   -8.233522|   -7.895318|   -7.759117|   -9.113942|    1.265049|
|        9453|  6.7690e+00|   -7.896115|   -8.006858|   -8.233560|   -7.895162|   -7.758976|   -9.113839|    1.265048|
|        9454|  6.7689e+00|   -7.895905|   -8.006740|   -8.233597|   -7.895002|   -7.758830|   -9.113721|    1.265047|
|        9455|  6.7689e+00|   -7.895694|   -8.006623|   -8.233631|   -7.894838|   -7.758680|   -9.113587|    1.265046|
|        9456|  6.7689e+00|   -7.895481|   -8.006507|   -8.233662|   -7.894673|   -7.758526|   -9.113438|    1.265045|
|        9457|  6.7689e+00|   -7.895269|   -8.006391|   -8.233691|   -7.894506|   -7.758369|   -9.113276|    1.265044|
|        9458|  6.7689e+00|   -7.895056|   -8.006277|   -8.233717|   -7.894338|   -7.758210|   -9.113100|    1.265043|
|        9459|  6.7688e+00|   -7.894845|   -8.006165|   -8.233739|   -7.894169|   -7.758051|   -9.112910|    1.265042|
|        9460|  6.7688e+00|   -7.894637|   -8.006056|   -8.233759|   -7.894001|   -7.757890|   -9.112709|    1.265041|
|        9461|  6.7688e+00|   -7.894431|   -8.005948|   -8.233774|   -7.893834|   -7.757730|   -9.112495|    1.265040|
|        9462|  6.7688e+00|   -7.894228|   -8.005843|   -8.233787|   -7.893669|   -7.757571|   -9.112271|    1.265039|
|        9463|  6.7688e+00|   -7.894032|   -8.005741|   -8.233795|   -7.893508|   -7.757415|   -9.112037|    1.265038|
|        9464|  6.7687e+00|   -7.893840|   -8.005643|   -8.233800|   -7.893350|   -7.757262|   -9.111793|    1.265037|
|        9465|  6.7687e+00|   -7.893653|   -8.005547|   -8.233801|   -7.893195|   -7.757110|   -9.111541|    1.265035|
|        9466|  6.7687e+00|   -7.893471|   -8.005454|   -8.233797|   -7.893043|   -7.756960|   -9.111281|    1.265034|
|        9467|  6.7687e+00|   -7.893295|   -8.005365|   -8.233789|   -7.892894|   -7.756812|   -9.111014|    1.265033|
|        9468|  6.7687e+00|   -7.893126|   -8.005278|   -8.233775|   -7.892749|   -7.756667|   -9.110741|    1.265032|
|        9469|  6.7687e+00|   -7.892963|   -8.005195|   -8.233756|   -7.892609|   -7.756526|   -9.110463|    1.265031|
|        9470|  6.7686e+00|   -7.892807|   -8.005116|   -8.233732|   -7.892473|   -7.756388|   -9.110181|    1.265030|
|        9471|  6.7686e+00|   -7.892660|   -8.005041|   -8.233703|   -7.892343|   -7.756256|   -9.109895|    1.265029|
|        9472|  6.7686e+00|   -7.892521|   -8.004969|   -8.233669|   -7.892218|   -7.756130|   -9.109607|    1.265028|
|        9473|  6.7686e+00|   -7.892392|   -8.004902|   -8.233629|   -7.892100|   -7.756009|   -9.109318|    1.265027|
|        9474|  6.7686e+00|   -7.892272|   -8.004838|   -8.233583|   -7.891988|   -7.755895|   -9.109028|    1.265026|
|        9475|  6.7685e+00|   -7.892162|   -8.004779|   -8.233531|   -7.891884|   -7.755788|   -9.108739|    1.265025|
|        9476|  6.7685e+00|   -7.892063|   -8.004724|   -8.233473|   -7.891786|   -7.755688|   -9.108451|    1.265024|
|        9477|  6.7685e+00|   -7.891974|   -8.004673|   -8.233410|   -7.891696|   -7.755596|   -9.108165|    1.265023|
|        9478|  6.7685e+00|   -7.891898|   -8.004626|   -8.233341|   -7.891615|   -7.755513|   -9.107883|    1.265022|
|        9479|  6.7685e+00|   -7.891832|   -8.004584|   -8.233266|   -7.891541|   -7.755438|   -9.107605|    1.265021|
|        9480|  6.7684e+00|   -7.891779|   -8.004546|   -8.233185|   -7.891476|   -7.755371|   -9.107333|    1.265019|

scontrol show job 1228488
JobId=1228488 JobName=m1.5_aoa60
   UserId=anthonyy(3152141) GroupId=anthonyy(3152141) MCS_label=N/A
   Priority=659243 Nice=0 Account=rrg-jphickey QOS=normal
   JobState=COMPLETING Reason=TimeLimit Dependency=(null)
   Requeue=0 Restarts=0 BatchFlag=1 Reboot=0 ExitCode=0:15
   RunTime=18:00:29 TimeLimit=18:00:00 TimeMin=N/A
   SubmitTime=2026-03-25T02:35:46 EligibleTime=2026-03-25T02:35:46
   AccrueTime=2026-03-25T02:35:46
   StartTime=2026-03-25T17:02:01 EndTime=2026-03-26T11:02:30 Deadline=N/A
   SuspendTime=None SecsPreSuspend=0 LastSchedEval=2026-03-25T17:02:01 Scheduler=Main
   Partition=compute AllocNode:Sid=tri-login01:1156378
   ReqNodeList=(null) ExcNodeList=(null)
   NodeList=tri[1075,1206]
   BatchHost=tri1075
   NumNodes=2 NumCPUs=384 NumTasks=128 CPUs/Task=1 ReqB:S:C:T=0:0:*:*
   ReqTRES=cpu=384,mem=1534000M,node=2,billing=384
   AllocTRES=cpu=384,mem=1534000M,node=2,billing=384
   Socks/Node=* NtasksPerN:B:S:C=64:0:*:* CoreSpec=*
   MinCPUsNode=64 MinMemoryNode=0 MinTmpDiskNode=0
   Features=(null) DelayBoot=00:00:00
   OverSubscribe=NO Contiguous=0 Licenses=(null) LicensesAlloc=(null) Network=(null)
   Command=/scratch/anthonyy/reentry/orion/config/run.sh
   SubmitLine=SBATCH --comment /opt/slurm/bin/sbatch --export=NONE --get-user-env --job-name m1.5_aoa60 --nodes 2 --ntasks-per-node 64 --cpus-per-task 1 --mem 0 --time 18:00:00 --account rrg-jphickey --output orion_%j.out --error orion_%j.err --chdir /scratch/anthonyy/reentry/orion/cases/m1.5_aoa60 /scratch/anthonyy/reentry/orion/config/run.sh /scratch/anthonyy/reentry/orion/config/generated/m1.5_aoa60.cfg --export=NONE --get-user-env --job-name m1.5_aoa60 --nodes 2 --ntasks-per-node 64 --cpus-per-task 1 --mem 0 --time 18:00:00 --account rrg-jphickey --output orion_%j.out --error orion_%j.err --chdir /scratch/anthonyy/reentry/orion/cases/m1.5_aoa60 /scratch/anthonyy/reentry/orion/config/run.sh /scratch/anthonyy/reentry/orion/config/generated/m1.5_aoa60.cfg
   WorkDir=/scratch/anthonyy/reentry/orion/cases/m1.5_aoa60
   Comment=/opt/slurm/bin/sbatch --export=NONE --get-user-env --job-name m1.5_aoa60 --nodes 2 --ntasks-per-node 64 --cpus-per-task 1 --mem 0 --time 18:00:00 --account rrg-jphickey --output orion_%j.out --error orion_%j.err --chdir /scratch/anthonyy/reentry/orion/cases/m1.5_aoa60 /scratch/anthonyy/reentry/orion/config/run.sh /scratch/anthonyy/reentry/orion/config/generated/m1.5_aoa60.cfg
   StdErr=/scratch/anthonyy/reentry/orion/cases/m1.5_aoa60/orion_1228488.err
   StdIn=/dev/null
   StdOut=/scratch/anthonyy/reentry/orion/cases/m1.5_aoa60/orion_1228488.out
   TresPerTask=cpu=1

sacct -j 1228488
JobID           JobName    Account    Elapsed  MaxVMSize     MaxRSS  SystemCPU    UserCPU ExitCode 
------------ ---------- ---------- ---------- ---------- ---------- ---------- ---------- -------- 
1228488      m1.5_aoa60 rrg-jphic+   18:00:29                        00:00.113  00:00.610      0:0 
1228488.bat+      batch rrg-jphic+   18:00:31          0     22736K  00:00.113  00:00.610     0:15 
1228488.ext+     extern rrg-jphic+   18:00:29                         00:00:00   00:00:00      0:0 
1228488.0       SU2_CFD rrg-jphic+   18:00:24                         00:00:00   00:00:00      0:0 


kernel messages produced during job executions:
[Mar25 17:02] hugetlbfs: SU2_CFD (152541): Using mlock ulimits for SHM_HUGETLB is obsolete

