Nodes:  tri[0839-0840]
Tasks:  128
NPN:    64
Config: /scratch/anthonyy/reentry/orion/config/generated/m1.5_aoa24.cfg

-------------------------------------------------------------------------
|    ___ _   _ ___                                                      |
|   / __| | | |_  )   Release 7.5.1 "Blackbird"                         |
|   \__ \ |_| |/ /                                                      |
|   |___/\___//___|   Suite (Computational Fluid Dynamics Code)         |
|                                                                       |
-------------------------------------------------------------------------
| SU2 Project Website: https://su2code.github.io                        |
|                                                                       |
| The SU2 Project is maintained by the SU2 Foundation                   |
| (http://su2foundation.org)                                            |
-------------------------------------------------------------------------
| Copyright 2012-2023, SU2 Contributors                                 |
|                                                                       |
| SU2 is free software; you can redistribute it and/or                  |
| modify it under the terms of the GNU Lesser General Public            |
| License as published by the Free Software Foundation; either          |
| version 2.1 of the License, or (at your option) any later version.    |
|                                                                       |
| SU2 is distributed in the hope that it will be useful,                |
| but WITHOUT ANY WARRANTY; without even the implied warranty of        |
| MERCHANTABILITY or FITNESS FOR A PARTICULAR PURPOSE. See the GNU      |
| Lesser General Public License for more details.                       |
|                                                                       |
| You should have received a copy of the GNU Lesser General Public      |
| License along with SU2. If not, see <http://www.gnu.org/licenses/>.   |
-------------------------------------------------------------------------

Parsing config file for zone 0

----------------- Physical Case Definition ( Zone 0 ) -------------------
Compressible RANS equations.
Turbulence model: Spalart-Allmaras-noft2
Hybrid RANS/LES: No Hybrid RANS/LES
Mach number: 1.5.
Angle of attack (AoA): 24 deg, and angle of sideslip (AoS): 0 deg.
Reynolds number: 1.71557e+08. Reference length 5.
No restart solution, use the values at infinity (freestream).
Non-Dimensional simulation (V=1.0, Rho=1.0, T=1.0 at the farfield).
The reference area will be computed using y(2D) or z(3D) projection.
The semi-span will be computed using the max y(3D) value.
The reference length is 0.64607 m.
Reference origin for moment evaluation is (0.25, 0, 0).
Surface(s) where the force coefficients are evaluated: ORION_SURFACE.

Input mesh file name: ../../mesh/fine.su2

--------------- Space Numerical Integration ( Zone 0 ) ------------------
Jameson-Schmidt-Turkel scheme (2nd order in space) for the flow inviscid terms.
JST viscous coefficients (2nd & 4th): 0.5, 0.02.
The method includes a grid stretching correction (p = 0.3).
Scalar upwind solver for the turbulence model.
First order integration in space.
Average of gradients with correction (viscous flow terms).
Average of gradients with correction (viscous turbulence terms).
Gradient for upwind reconstruction: Green-Gauss.
Gradient for viscous and source terms: Green-Gauss.

--------------- Time Numerical Integration  ( Zone 0 ) ------------------
Local time stepping (steady state simulation).
Euler implicit method for the flow equations.
FGMRES is used for solving the linear system.
Using a ILU(0) preconditioning.
Convergence criteria of the linear solver: 1e-06.
Max number of linear iterations: 100.
CFL adaptation. Factor down: 0.5, factor up: 1.2,
                lower limit: 0.1, upper limit: 3,
                acceptable linear residual: 0.001.
Courant-Friedrichs-Lewy number:        1
Euler implicit time integration for the turbulence model.

------------------ Convergence Criteria  ( Zone 0 ) ---------------------
Maximum number of solver subiterations: 999999.
Begin convergence monitoring at iteration 5.
Residual minimum value: 1e-8.
Cauchy series min. value: 1e-10.
Number of Cauchy elements: 100.
Begin windowed time average at iteration 0.

-------------------- Output Information ( Zone 0 ) ----------------------
File writing frequency: 
+------------------------------------+
|                     File| Frequency|
+------------------------------------+
|                  RESTART|       150|
|                 PARAVIEW|       150|
|         SURFACE_PARAVIEW|       150|
+------------------------------------+
Writing the convergence history file every 1 inner iterations.
Writing the screen convergence history every 1 inner iterations.
The tabular file format is CSV (.csv).
Convergence history file name: history.
Forces breakdown file name: forces_breakdown.dat.
Surface file name: surface_flow.
Volume file name: flow.
Restart file name: restart_flow.

------------- Config File Boundary Information ( Zone 0 ) ---------------
+-----------------------------------------------------------------------+
|                        Marker Type|                        Marker Name|
+-----------------------------------------------------------------------+
|                          Far-field|                           FARFIELD|
+-----------------------------------------------------------------------+
|                     Heat flux wall|                      ORION_SURFACE|
+-----------------------------------------------------------------------+

-------------------- Output Preprocessing ( Zone 0 ) --------------------

WARNING: SURFACE_PRESSURE_DROP can only be computed for at least 2 surfaces (outlet, inlet, ...)

Screen output fields: INNER_ITER, WALL_TIME, RMS_DENSITY, RMS_MOMENTUM-X, RMS_MOMENTUM-Y, RMS_MOMENTUM-Z, RMS_ENERGY, RMS_NU_TILDE, DRAG
History output group(s): ITER, RMS_RES
Convergence field(s): RMS_DENSITY
Warning: No (valid) fields chosen for time convergence monitoring. Time convergence monitoring inactive.
Volume output fields: MACH, PRESSURE, TEMPERATURE, DENSITY, HEAT_FLUX, Y_PLUS, COORDINATES, SOLUTION

------------------- Geometry Preprocessing ( Zone 0 ) -------------------
Three dimensional problem.
62211324 grid points before partitioning.
190879888 volume elements before partitioning.
2 surface markers.
4104 boundary elements in index 0 (Marker = FARFIELD).
1824836 boundary elements in index 1 (Marker = ORION_SURFACE).
Executing the partitioning functions.
Building the graph adjacency structure.
Calling ParMETIS... graph partitioning complete (4959327 edge cuts).
Distributing ParMETIS coloring.
Rebalancing vertices.
Rebalancing volume element connectivity.
Rebalancing markers and surface elements.
66952290 vertices including ghost points. 
197997438 interior elements including halo cells. 
103171259 tetrahedra.
94500655 prisms.
325524 pyramids.
Establishing MPI communication patterns.
Setting point connectivity.
Renumbering points (Reverse Cuthill McKee Ordering).
Recomputing point connectivity.
Setting element connectivity.
Checking the numerical grid orientation.
All volume elements are correctly orientend.
All surface elements are correctly orientend.
Identifying edges and vertices.
Setting the control volume structure.
Volume of the computational grid: 535693.
Searching for the closest normal neighbors to the surfaces.
Storing a mapping from global to local point index.
Compute the surface curvature.
Max K: 132.896. Mean K: 3.9104. Standard deviation K: 7.49569.
Checking for periodicity.
Computing mesh quality statistics for the dual control volumes.
+--------------------------------------------------------------+
|           Mesh Quality Metric|        Minimum|        Maximum|
+--------------------------------------------------------------+
|    Orthogonality Angle (deg.)|        53.0661|             90|
|     CV Face Area Aspect Ratio|        1.01143|        75298.5|
|           CV Sub-Volume Ratio|        1.00029|        45.0258|
+--------------------------------------------------------------+
Finding max control volume width.
Communicating number of neighbors.
Reference area = 11.531 m^2.
Semi-span length = 2.49999 m.
Wetted area = 57.9072 m^2.
Area projection in the x-plane = 19.6343 m^2, y-plane = 11.531 m^2, z-plane = 11.531 m^2.
Max. coordinate in the x-direction = 2.575 m, y-direction = 2.49999 m, z-direction = 2.49999 m.
Min. coordinate in the x-direction = -0.71 m, y-direction = -2.49999 m, z-direction = -2.5 m.
Computing wall distances.

-------------------- Solver Preprocessing ( Zone 0 ) --------------------
Viscous flow: Computing pressure using the ideal gas law
based on the free-stream temperature and a density computed
from the Reynolds number.
Force coefficients computed using free-stream values.

-- Models:
+------------------------------------------------------------------------------+
|          Viscosity Model|        Conductivity Model|              Fluid Model|
+------------------------------------------------------------------------------+
|               SUTHERLAND|          CONSTANT_PRANDTL|             STANDARD_AIR|
+------------------------------------------------------------------------------+
-- Fluid properties:
+------------------------------------------------------------------------------+
|                  Name|    Dim. value|    Ref. value|      Unit|Non-dim. value|
+------------------------------------------------------------------------------+
|        Ref. Viscosity|     1.716e-05|       613.934|   N.s/m^2|   2.79509e-08|
|      Sutherland Temp.|        273.15|        288.15|         K|      0.947944|
|     Sutherland Const.|         110.4|        288.15|         K|      0.383134|
+------------------------------------------------------------------------------+
|        Prandtl (Lam.)|             -|             -|         -|          0.72|
|       Prandtl (Turb.)|             -|             -|         -|           0.9|
+------------------------------------------------------------------------------+
|          Gas Constant|       287.058|       904.233|  N.m/kg.K|       0.31746|
|      Spec. Heat Ratio|             -|             -|         -|           1.4|
+------------------------------------------------------------------------------+
-- Initial and free-stream conditions:
+------------------------------------------------------------------------------+
|                  Name|    Dim. value|    Ref. value|      Unit|Non-dim. value|
+------------------------------------------------------------------------------+
|       Static Pressure|       99485.6|        313380|        Pa|       0.31746|
|               Density|       1.20274|       1.20274|    kg/m^3|             1|
|           Temperature|        288.15|        288.15|         K|             1|
|          Total Energy|        337067|        260555|   m^2/s^2|       1.29365|
|            Velocity-X|       466.315|       510.446|       m/s|      0.913545|
|            Velocity-Y|             0|       510.446|       m/s|             0|
|            Velocity-Z|       207.617|       510.446|       m/s|      0.406737|
|    Velocity Magnitude|       510.446|       510.446|       m/s|             1|
+------------------------------------------------------------------------------+
|             Viscosity|    1.7893e-05|       613.934|   N.s/m^2|   2.91448e-08|
|          Conductivity|             -|        555139|   W/m^2.K|             -|
|     Turb. Kin. Energy|        977.08|        260555|   m^2/s^2|       0.00375|
|     Spec. Dissipation|   6.56779e+06|       510.446|       1/s|       12866.8|
+------------------------------------------------------------------------------+
|           Mach Number|             -|             -|         -|           1.5|
|       Reynolds Number|             -|             -|         -|   1.71557e+08|
+------------------------------------------------------------------------------+
Initialize Jacobian structure (Navier-Stokes). MG level: 0.
Initialize Jacobian structure (SA model).

------------------- Numerics Preprocessing ( Zone 0 ) -------------------

----------------- Integration Preprocessing ( Zone 0 ) ------------------

------------------- Iteration Preprocessing ( Zone 0 ) ------------------
Euler/Navier-Stokes/RANS fluid iteration.

------------------------------ Begin Solver -----------------------------

Simulation Run using the Single-zone Driver
WARNING: SU2 was not compiled for an AVX-capable architecture. Performance could be better,
         see https://su2code.github.io/docs_v7/Build-SU2-Linux-MacOS/#compiler-optimizations
+--------------------------------------------------------------------------------------------------------------------+
|  Inner_Iter|   Time(sec)|    rms[Rho]|   rms[RhoU]|   rms[RhoV]|   rms[RhoW]|   rms[RhoE]|     rms[nu]|          CD|
+--------------------------------------------------------------------------------------------------------------------+
|           0|  6.2517e+00|   -5.269124|  -15.906069|  -16.490383|  -16.211651|   -5.061999|  -12.298806|    1.116519|
|           1|  6.2279e+00|   -5.420614|   -5.503040|   -6.499742|   -5.792930|   -5.216853|  -12.298172|    1.682553|
|           2|  6.2082e+00|   -5.429729|   -5.559750|   -6.475403|   -5.814341|   -5.218257|  -12.562532|    2.270544|
|           3|  6.2964e+00|   -5.437508|   -5.627227|   -6.390133|   -5.837589|   -5.217314|  -12.702470|    2.900761|
|           4|  6.3995e+00|   -5.449368|   -5.703037|   -6.296172|   -5.862979|   -5.220918|  -12.802802|    3.568971|
|           5|  6.4710e+00|   -5.471980|   -5.765006|   -6.213484|   -5.888921|   -5.237506|  -12.864689|    4.228647|
|           6|  6.5848e+00|   -5.511181|   -5.767798|   -6.146152|   -5.911246|   -5.275877|  -12.888436|    4.815576|
|           7|  6.7204e+00|   -5.559573|   -5.712426|   -6.096312|   -5.923855|   -5.329502|  -12.897522|    5.186340|
|           8|  6.8404e+00|   -5.572146|   -5.660141|   -6.065277|   -5.907231|   -5.341909|  -12.889704|    5.193339|
|           9|  6.9403e+00|   -5.530466|   -5.647786|   -6.041524|   -5.863662|   -5.283118|  -12.874616|    4.806619|
|          10|  7.0377e+00|   -5.480595|   -5.678736|   -6.017761|   -5.826264|   -5.216109|  -12.862277|    4.204776|
|          11|  7.1011e+00|   -5.462108|   -5.721768|   -5.996652|   -5.818390|   -5.190427|  -12.839776|    3.675335|
|          12|  7.1607e+00|   -5.477733|   -5.727847|   -5.988212|   -5.834863|   -5.207874|  -12.806122|    3.404756|
|          13|  7.2165e+00|   -5.506898|   -5.704452|   -5.992427|   -5.855022|   -5.244732|  -12.783991|    3.387983|
|          14|  7.2676e+00|   -5.526010|   -5.691895|   -6.004859|   -5.865246|   -5.270788|  -12.773228|    3.537540|
|          15|  7.3069e+00|   -5.529117|   -5.711701|   -6.019495|   -5.868089|   -5.273947|  -12.762151|    3.747901|
|          16|  7.3334e+00|   -5.527502|   -5.745863|   -6.028792|   -5.872576|   -5.270023|  -12.746143|    3.938669|
|          17|  7.3604e+00|   -5.531499|   -5.758934|   -6.030043|   -5.877792|   -5.275190|  -12.727894|    4.072354|
|          18|  7.3923e+00|   -5.537229|   -5.746403|   -6.028337|   -5.879485|   -5.284035|  -12.714475|    4.148749|
|          19|  7.4134e+00|   -5.539850|   -5.739575|   -6.029245|   -5.877618|   -5.287734|  -12.705853|    4.189307|
|          20|  7.4355e+00|   -5.537190|   -5.750462|   -6.031844|   -5.876419|   -5.283458|  -12.697693|    4.217802|
|          21|  7.4537e+00|   -5.535828|   -5.765150|   -6.031661|   -5.878080|   -5.281410|  -12.687534|    4.247188|
|          22|  7.4719e+00|   -5.536622|   -5.762556|   -6.028339|   -5.879438|   -5.282954|  -12.676612|    4.278113|
|          23|  7.4874e+00|   -5.536890|   -5.747884|   -6.024993|   -5.877845|   -5.284266|  -12.666497|    4.305177|
|          24|  7.5025e+00|   -5.535347|   -5.742069|   -6.024040|   -5.874778|   -5.281976|  -12.660303|    4.323757|
|          25|  7.5142e+00|   -5.531106|   -5.748360|   -6.023663|   -5.873056|   -5.275775|  -12.654627|    4.333418|
|          26|  7.5283e+00|   -5.529401|   -5.756249|   -6.022051|   -5.873595|   -5.273301|  -12.647492|    4.337468|
|          27|  7.5389e+00|   -5.529231|   -5.751621|   -6.018627|   -5.873493|   -5.273512|  -12.640624|    4.340322|
|          28|  7.5518e+00|   -5.528872|   -5.739533|   -6.015973|   -5.871137|   -5.273938|  -12.631991|    4.344981|
|          29|  7.5623e+00|   -5.526996|   -5.734376|   -6.014748|   -5.868142|   -5.271397|  -12.628025|    4.352081|
|          30|  7.5726e+00|   -5.523391|   -5.738268|   -6.014118|   -5.866818|   -5.266328|  -12.624075|    4.360505|
|          31|  7.5822e+00|   -5.521906|   -5.743128|   -6.012572|   -5.867169|   -5.264197|  -12.619955|    4.368654|
|          32|  7.5907e+00|   -5.521799|   -5.738474|   -6.010238|   -5.866680|   -5.264428|  -12.615721|    4.375459|
|          33|  7.5993e+00|   -5.521312|   -5.727974|   -6.008240|   -5.863934|   -5.264639|  -12.609073|    4.380755|
|          34|  7.6137e+00|   -5.519441|   -5.722454|   -6.007280|   -5.860941|   -5.262295|  -12.605687|    4.385070|
|          35|  7.6256e+00|   -5.516261|   -5.723365|   -6.006550|   -5.858939|   -5.257997|  -12.603198|    4.389139|
|          36|  7.6364e+00|   -5.514486|   -5.723909|   -6.004903|   -5.857881|   -5.255609|  -12.599263|    4.393471|
|          37|  7.6461e+00|   -5.513485|   -5.716002|   -6.002665|   -5.854905|   -5.254624|  -12.596673|    4.398169|
|          38|  7.6531e+00|   -5.511964|   -5.702240|   -6.000395|   -5.849234|   -5.253412|  -12.589151|    4.403006|
|          39|  7.6589e+00|   -5.508357|   -5.689613|   -5.998116|   -5.841859|   -5.248916|  -12.584334|    4.407644|
|          40|  7.6616e+00|   -5.503291|   -5.679007|   -5.995564|   -5.833735|   -5.242351|  -12.578802|    4.411842|
|          41|  7.6641e+00|   -5.498206|   -5.664901|   -5.991330|   -5.823837|   -5.235840|  -12.571170|    4.415550|
|          42|  7.6701e+00|   -5.492633|   -5.642283|   -5.985860|   -5.810240|   -5.229122|  -12.563868|    4.418880|
|          43|  7.6868e+00|   -5.485525|   -5.613989|   -5.978993|   -5.792465|   -5.221011|  -12.551117|    4.422000|
|          44|  7.6914e+00|   -5.475410|   -5.584641|   -5.970735|   -5.771813|   -5.208991|  -12.538427|    4.425030|
|          45|  7.6940e+00|   -5.462989|   -5.555415|   -5.960792|   -5.749257|   -5.194367|  -12.525354|    4.427999|
|          46|  7.6956e+00|   -5.449761|   -5.524615|   -5.948545|   -5.725000|   -5.179255|  -12.509251|    4.430861|
|          47|  7.6990e+00|   -5.435328|   -5.490928|   -5.934322|   -5.698856|   -5.163426|  -12.494216|    4.433546|
|          48|  7.7109e+00|   -5.419648|   -5.456715|   -5.918372|   -5.671435|   -5.147001|  -12.475563|    4.436016|
|          49|  7.7235e+00|   -5.402215|   -5.424320|   -5.901313|   -5.644277|   -5.128817|  -12.457081|    4.438274|
|          50|  7.7374e+00|   -5.383801|   -5.394338|   -5.883183|   -5.618048|   -5.109996|  -12.440195|    4.440360|
|          51|  7.7479e+00|   -5.366088|   -5.366383|   -5.864488|   -5.593324|   -5.092533|  -12.421919|    4.442321|
|          52|  7.7595e+00|   -5.348600|   -5.339570|   -5.845326|   -5.569807|   -5.075856|  -12.406493|    4.444185|
|          53|  7.7718e+00|   -5.331924|   -5.314785|   -5.826535|   -5.547952|   -5.060670|  -12.389915|    4.445958|
|          54|  7.7827e+00|   -5.315544|   -5.292688|   -5.808318|   -5.528085|   -5.045865|  -12.374739|    4.447631|
|          55|  7.7926e+00|   -5.299987|   -5.273349|   -5.790933|   -5.510477|   -5.032098|  -12.361894|    4.449191|
|          56|  7.8035e+00|   -5.286151|   -5.256465|   -5.774493|   -5.495028|   -5.020385|  -12.349123|    4.450635|
|          57|  7.8128e+00|   -5.273562|   -5.241291|   -5.759050|   -5.481485|   -5.010092|  -12.339235|    4.451968|
|          58|  7.8206e+00|   -5.262485|   -5.228063|   -5.744859|   -5.469712|   -5.001604|  -12.329376|    4.453203|
|          59|  7.8286e+00|   -5.252412|   -5.216950|   -5.731957|   -5.459811|   -4.993950|  -12.320718|    4.454353|
|          60|  7.8361e+00|   -5.243407|   -5.207824|   -5.720201|   -5.451632|   -4.987274|  -12.314319|    4.455425|
|          61|  7.8442e+00|   -5.236063|   -5.200506|   -5.709660|   -5.445116|   -4.982309|  -12.307857|    4.456422|
|          62|  7.8501e+00|   -5.229760|   -5.194348|   -5.700085|   -5.439851|   -4.978252|  -12.303910|    4.457346|
|          63|  7.8568e+00|   -5.224785|   -5.189470|   -5.691683|   -5.435759|   -4.975607|  -12.299709|    4.458194|
|          64|  7.8644e+00|   -5.220489|   -5.185858|   -5.684182|   -5.432723|   -4.973303|  -12.296491|    4.458968|
|          65|  7.8703e+00|   -5.216994|   -5.183437|   -5.677598|   -5.430708|   -4.971608|  -12.294661|    4.459671|
|          66|  7.8774e+00|   -5.214562|   -5.182084|   -5.671766|   -5.429553|   -4.970895|  -12.292691|    4.460308|
|          67|  7.8847e+00|   -5.212790|   -5.181325|   -5.666605|   -5.429032|   -4.970633|  -12.292339|    4.460882|
|          68|  7.8906e+00|   -5.211824|   -5.181215|   -5.662124|   -5.428989|   -4.971197|  -12.291700|    4.461398|
|          69|  7.8968e+00|   -5.211198|   -5.181767|   -5.658175|   -5.429441|   -4.971782|  -12.291361|    4.461858|
|          70|  7.9034e+00|   -5.210918|   -5.182917|   -5.654712|   -5.430301|   -4.972511|  -12.292056|    4.462262|
|          71|  7.9096e+00|   -5.211267|   -5.184649|   -5.651663|   -5.431544|   -4.973818|  -12.292216|    4.462612|
|          72|  7.9151e+00|   -5.211891|   -5.186596|   -5.648960|   -5.432961|   -4.975202|  -12.293488|    4.462909|
|          73|  7.9191e+00|   -5.212940|   -5.188790|   -5.646623|   -5.434497|   -4.977072|  -12.294420|    4.463156|
|          74|  7.9187e+00|   -5.214078|   -5.191304|   -5.644546|   -5.436172|   -4.978801|  -12.295085|    4.463354|
|          75|  7.9183e+00|   -5.215222|   -5.194056|   -5.642719|   -5.437958|   -4.980373|  -12.296689|    4.463507|
|          76|  7.9226e+00|   -5.216726|   -5.197138|   -5.641095|   -5.439862|   -4.982349|  -12.297358|    4.463615|
|          77|  7.9266e+00|   -5.218205|   -5.200210|   -5.639644|   -5.441738|   -4.984126|  -12.298871|    4.463681|
|          78|  7.9310e+00|   -5.219864|   -5.203308|   -5.638394|   -5.443566|   -4.986214|  -12.300057|    4.463707|
|          79|  7.9311e+00|   -5.221466|   -5.206556|   -5.637289|   -5.445374|   -4.988105|  -12.300505|    4.463694|
|          80|  7.9319e+00|   -5.222825|   -5.209804|   -5.636305|   -5.447175|   -4.989613|  -12.302087|    4.463642|
|          81|  7.9312e+00|   -5.224463|   -5.213287|   -5.635450|   -5.448970|   -4.991544|  -12.302322|    4.463555|
|          82|  7.9294e+00|   -5.225857|   -5.216620|   -5.634650|   -5.450684|   -4.993019|  -12.303419|    4.463432|
|          83|  7.9288e+00|   -5.227362|   -5.219873|   -5.633933|   -5.452259|   -4.994783|  -12.304261|    4.463277|
|          84|  7.9272e+00|   -5.228783|   -5.223174|   -5.633250|   -5.453777|   -4.996353|  -12.304075|    4.463089|
|          85|  7.9269e+00|   -5.229831|   -5.226302|   -5.632516|   -5.455204|   -4.997375|  -12.305315|    4.462871|
|          86|  7.9262e+00|   -5.231197|   -5.229650|   -5.631811|   -5.456585|   -4.998914|  -12.304869|    4.462623|
|          87|  7.9251e+00|   -5.232179|   -5.232758|   -5.630997|   -5.457858|   -4.999792|  -12.305383|    4.462346|
|          88|  7.9233e+00|   -5.233288|   -5.235737|   -5.630175|   -5.458954|   -5.001021|  -12.305663|    4.462040|
|          89|  7.9165e+00|   -5.234287|   -5.238697|   -5.629283|   -5.459979|   -5.002071|  -12.304728|    4.461705|
|          90|  7.9109e+00|   -5.234831|   -5.241370|   -5.628269|   -5.460888|   -5.002487|  -12.305314|    4.461343|
|          91|  7.9060e+00|   -5.235660|   -5.244251|   -5.627268|   -5.461752|   -5.003447|  -12.304112|    4.460953|
|          92|  7.9000e+00|   -5.236011|   -5.246862|   -5.626121|   -5.462525|   -5.003633|  -12.303759|    4.460534|
|          93|  7.8957e+00|   -5.236461|   -5.249296|   -5.624964|   -5.463139|   -5.004156|  -12.303464|    4.460087|
|          94|  7.8910e+00|   -5.236843|   -5.251703|   -5.623739|   -5.463704|   -5.004627|  -12.301768|    4.459609|
|          95|  7.8872e+00|   -5.236719|   -5.253751|   -5.622386|   -5.464161|   -5.004383|  -12.301637|    4.459101|
|          96|  7.8823e+00|   -5.236837|   -5.255974|   -5.621055|   -5.464575|   -5.004680|  -12.300008|    4.458560|
|          97|  7.8774e+00|   -5.236478|   -5.257990|   -5.619597|   -5.464947|   -5.004230|  -12.298748|    4.457984|
|          98|  7.8730e+00|   -5.236110|   -5.259751|   -5.618138|   -5.465168|   -5.003941|  -12.298166|    4.457373|
|          99|  7.8688e+00|   -5.235786|   -5.261545|   -5.616669|   -5.465336|   -5.003867|  -12.295933|    4.456723|
|         100|  7.8649e+00|   -5.234884|   -5.262954|   -5.615096|   -5.465429|   -5.002956|  -12.295088|    4.456032|
|         101|  7.8603e+00|   -5.234156|   -5.264438|   -5.613584|   -5.465454|   -5.002540|  -12.293465|    4.455297|
|         102|  7.8556e+00|   -5.233046|   -5.265902|   -5.612010|   -5.465460|   -5.001602|  -12.291194|    4.454517|
|         103|  7.8227e+00|   -5.231683|   -5.267020|   -5.610414|   -5.465322|   -5.000397|  -12.293585|    4.454499|
|         104|  7.7904e+00|   -5.231102|   -5.266962|   -5.610143|   -5.465108|   -4.999778|  -12.292838|    4.454477|
|         105|  7.7582e+00|   -5.230425|   -5.266887|   -5.609819|   -5.464858|   -4.999060|  -12.291967|    4.454450|
|         106|  7.7303e+00|   -5.229640|   -5.266788|   -5.609434|   -5.464565|   -4.998237|  -12.290955|    4.454418|
|         107|  7.7034e+00|   -5.228738|   -5.266655|   -5.608976|   -5.464227|   -4.997303|  -12.289790|    4.454378|
|         108|  7.6766e+00|   -5.227717|   -5.266475|   -5.608434|   -5.463838|   -4.996260|  -12.288459|    4.454329|
|         109|  7.6501e+00|   -5.226577|   -5.266225|   -5.607794|   -5.463398|   -4.995118|  -12.286950|    4.454269|
|         110|  7.6254e+00|   -5.225333|   -5.265872|   -5.607041|   -5.462908|   -4.993898|  -12.285246|    4.454195|
|         111|  7.6007e+00|   -5.224014|   -5.265371|   -5.606161|   -5.462372|   -4.992641|  -12.283333|    4.454103|
|         112|  7.5799e+00|   -5.222670|   -5.264666|   -5.605142|   -5.461803|   -4.991405|  -12.281234|    4.453988|
|         113|  7.5595e+00|   -5.221373|   -5.263699|   -5.603979|   -5.461220|   -4.990274|  -12.279058|    4.453844|
|         114|  7.5394e+00|   -5.220203|   -5.262442|   -5.602678|   -5.460648|   -4.989342|  -12.277000|    4.453663|
|         115|  7.5231e+00|   -5.219207|   -5.260947|   -5.601260|   -5.460115|   -4.988663|  -12.275288|    4.453433|
|         116|  7.5070e+00|   -5.218303|   -5.259390|   -5.599755|   -5.459634|   -4.988121|  -12.273819|    4.453140|
|         117|  7.4951e+00|   -5.217121|   -5.258016|   -5.598163|   -5.459165|   -4.987130|  -12.271732|    4.452767|
|         118|  7.4837e+00|   -5.214920|   -5.256965|   -5.596424|   -5.458552|   -4.984430|  -12.267856|    4.452293|
|         119|  7.4755e+00|   -5.211142|   -5.256385|   -5.594504|   -5.457543|   -4.979087|  -12.263599|    4.451690|
|         120|  7.4674e+00|   -5.206569|   -5.256928|   -5.592629|   -5.456091|   -4.972711|  -12.262131|    4.450926|
|         121|  7.4627e+00|   -5.203066|   -5.259039|   -5.591317|   -5.454535|   -4.968479|  -12.262676|    4.449957|
|         122|  7.4587e+00|   -5.201329|   -5.261982|   -5.590931|   -5.453317|   -4.966916|  -12.262054|    4.448805|
|         123|  7.4546e+00|   -5.200279|   -5.264992|   -5.591179|   -5.452541|   -4.966132|  -12.262336|    4.447601|
|         124|  7.4508e+00|   -5.200641|   -5.267379|   -5.591421|   -5.451734|   -4.967599|  -12.264402|    4.446333|
|         125|  7.4465e+00|   -5.202747|   -5.268736|   -5.591549|   -5.450793|   -4.972105|  -12.264560|    4.444994|
|         126|  7.4420e+00|   -5.203625|   -5.268939|   -5.591142|   -5.449604|   -4.975100|  -12.261215|    4.443578|
|         127|  7.4388e+00|   -5.202081|   -5.269019|   -5.590193|   -5.447922|   -4.974679|  -12.257612|    4.442081|
|         128|  7.4357e+00|   -5.199401|   -5.270000|   -5.589008|   -5.445356|   -4.972949|  -12.252791|    4.440503|
|         129|  7.4322e+00|   -5.195493|   -5.271574|   -5.587471|   -5.441795|   -4.969684|  -12.245930|    4.438847|
|         130|  7.4288e+00|   -5.190431|   -5.272697|   -5.585545|   -5.437350|   -4.964927|  -12.240778|    4.437119|
|         131|  7.4257e+00|   -5.185843|   -5.272881|   -5.583463|   -5.432063|   -4.961328|  -12.236110|    4.435331|
|         132|  7.4226e+00|   -5.181247|   -5.272341|   -5.581162|   -5.425959|   -4.958078|  -12.228844|    4.433503|
|         133|  7.4191e+00|   -5.175079|   -5.271368|   -5.578470|   -5.418994|   -4.952669|  -12.221781|    4.431660|
|         134|  7.4157e+00|   -5.168163|   -5.270667|   -5.575541|   -5.411052|   -4.946460|  -12.214492|    4.429836|
|         135|  7.4130e+00|   -5.160566|   -5.270137|   -5.572238|   -5.402020|   -4.939447|  -12.204765|    4.428070|
|         136|  7.4098e+00|   -5.151762|   -5.269210|   -5.568362|   -5.391911|   -4.930760|  -12.195151|    4.426400|
|         137|  7.4072e+00|   -5.142701|   -5.267769|   -5.564018|   -5.380806|   -4.922117|  -12.186338|    4.424856|
|         138|  7.4044e+00|   -5.133705|   -5.265699|   -5.559152|   -5.368750|   -4.913985|  -12.175426|    4.423450|
|         139|  7.4015e+00|   -5.123547|   -5.262734|   -5.553489|   -5.355785|   -4.904258|  -12.163255|    4.422168|
|         140|  7.3980e+00|   -5.112237|   -5.259604|   -5.547075|   -5.341981|   -4.893135|  -12.151545|    4.420963|
|         141|  7.3949e+00|   -5.100310|   -5.256601|   -5.539934|   -5.327365|   -4.881547|  -12.138671|    4.419748|
|         142|  7.3925e+00|   -5.087400|   -5.252924|   -5.531847|   -5.311933|   -4.868664|  -12.124025|    4.418399|
|         143|  7.3865e+00|   -5.073437|   -5.248291|   -5.522751|   -5.295793|   -4.854407|  -12.109575|    4.416765|
|         144|  7.3805e+00|   -5.059109|   -5.243208|   -5.512804|   -5.279101|   -4.840112|  -12.095233|    4.414676|
|         145|  7.3745e+00|   -5.044323|   -5.237369|   -5.501924|   -5.261916|   -4.825540|  -12.079516|    4.411968|
|         146|  7.3687e+00|   -5.028587|   -5.230162|   -5.489919|   -5.244303|   -4.809648|  -12.062732|    4.408499|
|         147|  7.3640e+00|   -5.012008|   -5.222043|   -5.476834|   -5.226436|   -4.792671|  -12.045992|    4.404173|
|         148|  7.3586e+00|   -4.994926|   -5.213595|   -5.462802|   -5.208490|   -4.775293|  -12.029061|    4.398951|
|         149|  7.3537e+00|   -4.977339|   -5.204426|   -5.447819|   -5.190606|   -4.757381|  -12.011309|    4.392861|
|         150|  7.3482e+00|   -4.959192|   -5.193985|   -5.431872|   -5.172884|   -4.738697|  -11.993220|    4.385996|
+-----------------------------------------------------------------------+
|        File Writing Summary       |              Filename             |
+-----------------------------------------------------------------------+
|SU2 binary restart                 |restart_flow.dat                   |
|Paraview                           |flow.vtu                           |
|Paraview surface                   |surface_flow.vtu                   |
+-----------------------------------------------------------------------+
+--------------------------------------------------------------------------------------------------------------------+
|  Inner_Iter|   Time(sec)|    rms[Rho]|   rms[RhoU]|   rms[RhoV]|   rms[RhoW]|   rms[RhoE]|     rms[nu]|          CD|
+--------------------------------------------------------------------------------------------------------------------+
|         151|  7.4885e+00|   -4.940697|   -5.182478|   -5.415120|   -5.155395|   -4.719625|  -11.975321|    4.378506|
|         152|  7.4854e+00|   -4.922009|   -5.170191|   -5.397736|   -5.138140|   -4.700442|  -11.957375|    4.370582|
|         153|  7.4803e+00|   -4.903128|   -5.156934|   -5.379855|   -5.121101|   -4.680999|  -11.939130|    4.362433|
|         154|  7.4753e+00|   -4.884121|   -5.142630|   -5.361578|   -5.104384|   -4.661278|  -11.921044|    4.354269|
|         155|  7.4696e+00|   -4.865164|   -5.127621|   -5.343000|   -5.088131|   -4.641563|  -11.903379|    4.346275|
|         156|  7.4642e+00|   -4.846403|   -5.112205|   -5.324258|   -5.072477|   -4.622088|  -11.885842|    4.338598|
|         157|  7.4449e+00|   -4.827875|   -5.096329|   -5.305457|   -5.057509|   -4.602863|  -11.897859|    4.338349|
|         158|  7.4264e+00|   -4.826832|   -5.095743|   -5.304601|   -5.056698|   -4.601872|  -11.896301|    4.338050|
|         159|  7.4076e+00|   -4.825595|   -5.095025|   -5.303574|   -5.055734|   -4.600699|  -11.894454|    4.337691|
|         160|  7.3918e+00|   -4.824131|   -5.094143|   -5.302345|   -5.054591|   -4.599313|  -11.892272|    4.337262|
|         161|  7.3763e+00|   -4.822404|   -5.093054|   -5.300871|   -5.053239|   -4.597680|  -11.889701|    4.336749|
|         162|  7.3606e+00|   -4.820373|   -5.091702|   -5.299107|   -5.051645|   -4.595764|  -11.886685|    4.336135|
|         163|  7.3448e+00|   -4.817995|   -5.090017|   -5.296997|   -5.049772|   -4.593527|  -11.883163|    4.335401|
|         164|  7.3296e+00|   -4.815225|   -5.087907|   -5.294474|   -5.047583|   -4.590928|  -11.879075|    4.334525|
|         165|  7.3149e+00|   -4.812015|   -5.085250|   -5.291461|   -5.045035|   -4.587924|  -11.874364|    4.333480|
|         166|  7.3026e+00|   -4.808320|   -5.081890|   -5.287871|   -5.042087|   -4.584472|  -11.868979|    4.332237|
|         167|  7.2903e+00|   -4.804093|   -5.077633|   -5.283598|   -5.038699|   -4.580527|  -11.862879|    4.330761|
|         168|  7.2779e+00|   -4.799285|   -5.072246|   -5.278527|   -5.034825|   -4.576030|  -11.856028|    4.329014|
|         169|  7.2656e+00|   -4.793847|   -5.065476|   -5.272532|   -5.030433|   -4.570907|  -11.848387|    4.326954|
|         170|  7.2564e+00|   -4.787694|   -5.057076|   -5.265478|   -5.025470|   -4.565016|  -11.839895|    4.324536|
|         171|  7.2476e+00|   -4.780682|   -5.046881|   -5.257220|   -5.019855|   -4.558105|  -11.830444|    4.321718|
|         172|  7.2386e+00|   -4.772557|   -5.034904|   -5.247605|   -5.013455|   -4.549744|  -11.819863|    4.318458|
|         173|  7.2318e+00|   -4.762930|   -5.021464|   -5.236494|   -5.006078|   -4.539321|  -11.807906|    4.314719|
|         174|  7.2248e+00|   -4.751296|   -5.007253|   -5.223745|   -4.997472|   -4.526110|  -11.794327|    4.310467|
|         175|  7.2207e+00|   -4.737155|   -4.993224|   -5.209244|   -4.987371|   -4.509537|  -11.779107|    4.305651|
|         176|  7.2170e+00|   -4.720325|   -4.980188|   -5.192929|   -4.975697|   -4.489645|  -11.763736|    4.300496|
|         177|  7.2132e+00|   -4.702098|   -4.968856|   -5.175692|   -4.963341|   -4.468563|  -11.750197|    4.295523|
|         178|  7.2098e+00|   -4.684904|   -4.958705|   -5.159102|   -4.951906|   -4.449668|  -11.737203|    4.290635|
|         179|  7.2061e+00|   -4.669578|   -4.947071|   -5.143001|   -4.941919|   -4.433758|  -11.724779|    4.285753|
|         180|  7.2024e+00|   -4.656072|   -4.932843|   -5.127253|   -4.933405|   -4.420442|  -11.712614|    4.280813|
|         181|  7.1988e+00|   -4.643769|   -4.916744|   -5.111871|   -4.926055|   -4.408667|  -11.700404|    4.275773|
|         182|  7.1950e+00|   -4.631842|   -4.900419|   -5.096866|   -4.919347|   -4.397238|  -11.687904|    4.270608|
|         183|  7.1920e+00|   -4.619680|   -4.885148|   -5.082231|   -4.912838|   -4.385318|  -11.675079|    4.265307|
|         184|  7.1887e+00|   -4.607077|   -4.871152|   -5.067879|   -4.906283|   -4.372619|  -11.662284|    4.259870|
|         185|  7.1852e+00|   -4.594156|   -4.857850|   -5.053783|   -4.899618|   -4.359334|  -11.649952|    4.254299|
|         186|  7.1818e+00|   -4.581301|   -4.844592|   -5.039993|   -4.892991|   -4.345975|  -11.638410|    4.248601|
|         187|  7.1782e+00|   -4.568901|   -4.831220|   -5.026608|   -4.886628|   -4.333079|  -11.627615|    4.242783|
|         188|  7.1746e+00|   -4.557106|   -4.817974|   -5.013626|   -4.880628|   -4.320884|  -11.617410|    4.236850|
|         189|  7.1710e+00|   -4.545878|   -4.805167|   -5.001051|   -4.874883|   -4.309325|  -11.607557|    4.230803|
|         190|  7.1677e+00|   -4.535054|   -4.793011|   -4.988888|   -4.869148|   -4.298183|  -11.597970|    4.224643|
|         191|  7.1642e+00|   -4.524568|   -4.781566|   -4.977146|   -4.863264|   -4.287333|  -11.588754|    4.218371|
|         192|  7.1612e+00|   -4.514484|   -4.770829|   -4.965879|   -4.857222|   -4.276824|  -11.580039|    4.211984|
|         193|  7.1576e+00|   -4.504988|   -4.760779|   -4.955119|   -4.851144|   -4.266840|  -11.571933|    4.205483|
|         194|  7.1544e+00|   -4.496351|   -4.751572|   -4.944933|   -4.845179|   -4.257729|  -11.564627|    4.198868|
|         195|  7.1402e+00|   -4.488799|   -4.743441|   -4.935420|   -4.839483|   -4.249803|  -11.575457|    4.198654|
|         196|  7.1266e+00|   -4.488039|   -4.743269|   -4.934854|   -4.838970|   -4.249149|  -11.574158|    4.198397|
|         197|  7.1151e+00|   -4.487150|   -4.743046|   -4.934180|   -4.838365|   -4.248388|  -11.572636|    4.198088|
|         198|  7.1038e+00|   -4.486115|   -4.742754|   -4.933378|   -4.837654|   -4.247509|  -11.570859|    4.197716|
|         199|  7.0922e+00|   -4.484921|   -4.742370|   -4.932423|   -4.836824|   -4.246505|  -11.568801|    4.197269|
|         200|  7.0813e+00|   -4.483554|   -4.741859|   -4.931291|   -4.835858|   -4.245370|  -11.566436|    4.196730|
|         201|  7.0706e+00|   -4.482007|   -4.741173|   -4.929953|   -4.834744|   -4.244107|  -11.563749|    4.196082|
|         202|  7.0601e+00|   -4.480283|   -4.740247|   -4.928377|   -4.833468|   -4.242731|  -11.560735|    4.195301|
|         203|  7.0515e+00|   -4.478397|   -4.738987|   -4.926527|   -4.832022|   -4.241266|  -11.557407|    4.194360|
|         204|  7.0429e+00|   -4.476383|   -4.737273|   -4.924366|   -4.830406|   -4.239760|  -11.553802|    4.193223|
|         205|  7.0349e+00|   -4.474297|   -4.734952|   -4.921857|   -4.828622|   -4.238279|  -11.549997|    4.191848|
|         206|  7.0259e+00|   -4.472217|   -4.731842|   -4.918964|   -4.826684|   -4.236897|  -11.546093|    4.190185|
|         207|  7.0196e+00|   -4.470238|   -4.727768|   -4.915672|   -4.824611|   -4.235687|  -11.542214|    4.188171|
|         208|  7.0135e+00|   -4.468431|   -4.722605|   -4.911973|   -4.822410|   -4.234654|  -11.538456|    4.185730|
|         209|  7.0070e+00|   -4.466787|   -4.716379|   -4.907872|   -4.820061|   -4.233651|  -11.534789|    4.182769|
|         210|  7.0032e+00|   -4.465145|   -4.709431|   -4.903399|   -4.817478|   -4.232296|  -11.531043|    4.179179|
|         211|  6.9991e+00|   -4.463126|   -4.702543|   -4.898627|   -4.814486|   -4.229932|  -11.526950|    4.174831|
|         212|  6.9972e+00|   -4.460124|   -4.696942|   -4.893616|   -4.810821|   -4.225686|  -11.522300|    4.169576|
|         213|  6.9955e+00|   -4.455555|   -4.694062|   -4.888372|   -4.806228|   -4.218897|  -11.517339|    4.163244|
|         214|  6.9935e+00|   -4.449423|   -4.694987|   -4.882954|   -4.800693|   -4.209927|  -11.513698|    4.156122|
|         215|  6.9914e+00|   -4.442881|   -4.699578|   -4.877708|   -4.794809|   -4.200933|  -11.512890|    4.149064|
|         216|  6.9897e+00|   -4.437796|   -4.705458|   -4.873098|   -4.789587|   -4.194816|  -11.513418|    4.142104|
|         217|  6.9885e+00|   -4.435414|   -4.709530|   -4.869065|   -4.785555|   -4.192794|  -11.514805|    4.135283|
|         218|  6.9877e+00|   -4.435643|   -4.710550|   -4.865469|   -4.782773|   -4.194387|  -11.516266|    4.128640|
|         219|  6.9853e+00|   -4.437459|   -4.709392|   -4.862188|   -4.780954|   -4.198002|  -11.516984|    4.122217|
|         220|  6.9832e+00|   -4.439541|   -4.708052|   -4.859127|   -4.779590|   -4.201814|  -11.516423|    4.116049|
|         221|  6.9812e+00|   -4.440985|   -4.708044|   -4.856264|   -4.778218|   -4.204601|  -11.514723|    4.110160|
|         222|  6.9795e+00|   -4.441532|   -4.709832|   -4.853601|   -4.776544|   -4.206074|  -11.512543|    4.104558|
|         223|  6.9777e+00|   -4.441391|   -4.712935|   -4.851158|   -4.774494|   -4.206582|  -11.510717|    4.099235|
|         224|  6.9757e+00|   -4.440950|   -4.716445|   -4.848926|   -4.772206|   -4.206691|  -11.509663|    4.094159|
|         225|  6.9738e+00|   -4.440499|   -4.719396|   -4.846765|   -4.769881|   -4.206795|  -11.509287|    4.089279|
|         226|  6.9715e+00|   -4.440228|   -4.721311|   -4.844565|   -4.767657|   -4.207113|  -11.509284|    4.084524|
|         227|  6.9697e+00|   -4.440132|   -4.722407|   -4.842279|   -4.765526|   -4.207643|  -11.509332|    4.079808|
|         228|  6.9676e+00|   -4.440129|   -4.723203|   -4.839889|   -4.763461|   -4.208284|  -11.509119|    4.075035|
|         229|  6.9659e+00|   -4.440134|   -4.723951|   -4.837480|   -4.761436|   -4.208904|  -11.508687|    4.070103|
|         230|  6.9642e+00|   -4.440126|   -4.724671|   -4.835133|   -4.759430|   -4.209465|  -11.508209|    4.064911|
|         231|  6.9626e+00|   -4.440148|   -4.725546|   -4.832914|   -4.757428|   -4.210085|  -11.507825|    4.059367|
|         232|  6.9615e+00|   -4.440153|   -4.726606|   -4.830783|   -4.755406|   -4.210752|  -11.507504|    4.053390|
|         233|  6.9598e+00|   -4.440028|   -4.727419|   -4.828664|   -4.753343|   -4.211266|  -11.506967|    4.046914|
|         234|  6.9581e+00|   -4.439745|   -4.727451|   -4.826526|   -4.751232|   -4.211516|  -11.506207|    4.039892|
|         235|  6.9566e+00|   -4.439390|   -4.726566|   -4.824360|   -4.749014|   -4.211602|  -11.505406|    4.032294|
|         236|  6.9550e+00|   -4.439120|   -4.725075|   -4.822182|   -4.746634|   -4.211775|  -11.504685|    4.024111|
|         237|  6.9534e+00|   -4.438951|   -4.723179|   -4.819954|   -4.744058|   -4.212058|  -11.504069|    4.015347|
|         238|  6.9522e+00|   -4.438798|   -4.720843|   -4.817635|   -4.741318|   -4.212309|  -11.503439|    4.006023|
|         239|  6.9510e+00|   -4.438580|   -4.717908|   -4.815266|   -4.738478|   -4.212394|  -11.502620|    3.996168|
|         240|  6.9493e+00|   -4.438276|   -4.714278|   -4.812914|   -4.735564|   -4.212309|  -11.501578|    3.985819|
|         241|  6.9478e+00|   -4.437904|   -4.709848|   -4.810574|   -4.732525|   -4.212114|  -11.500426|    3.975017|
|         242|  6.9464e+00|   -4.437471|   -4.704599|   -4.808129|   -4.729289|   -4.211842|  -11.499255|    3.963804|
|         243|  6.9451e+00|   -4.436940|   -4.698580|   -4.805488|   -4.725759|   -4.211454|  -11.498050|    3.952220|
|         244|  6.9444e+00|   -4.436243|   -4.691802|   -4.802599|   -4.721850|   -4.210847|  -11.496671|    3.940301|
|         245|  6.9428e+00|   -4.435384|   -4.684293|   -4.799500|   -4.717570|   -4.210022|  -11.495079|    3.928078|
|         246|  6.9412e+00|   -4.434403|   -4.676101|   -4.796243|   -4.712980|   -4.209052|  -11.493357|    3.915576|
|         247|  6.9398e+00|   -4.433269|   -4.667232|   -4.792823|   -4.708110|   -4.207914|  -11.491562|    3.902813|
|         248|  6.9382e+00|   -4.431981|   -4.657694|   -4.789260|   -4.702992|   -4.206615|  -11.489517|    3.889800|
|         249|  6.9367e+00|   -4.430515|   -4.647468|   -4.785574|   -4.697638|   -4.205119|  -11.487166|    3.876542|
|         250|  6.9350e+00|   -4.428874|   -4.636590|   -4.781768|   -4.692053|   -4.203424|  -11.484494|    3.863040|
|         251|  6.9337e+00|   -4.427059|   -4.625250|   -4.777840|   -4.686227|   -4.201574|  -11.481558|    3.849287|
|         252|  6.9323e+00|   -4.425029|   -4.613680|   -4.773793|   -4.680159|   -4.199585|  -11.478309|    3.835277|
|         253|  6.9311e+00|   -4.422708|   -4.601969|   -4.769614|   -4.673847|   -4.197377|  -11.474652|    3.820996|
|         254|  6.9294e+00|   -4.420029|   -4.590076|   -4.765280|   -4.667297|   -4.194856|  -11.470521|    3.806434|
|         255|  6.9282e+00|   -4.417022|   -4.577963|   -4.760836|   -4.660555|   -4.192049|  -11.466013|    3.791578|
|         256|  6.9271e+00|   -4.413753|   -4.565666|   -4.756332|   -4.653675|   -4.189042|  -11.461223|    3.776417|
|         257|  6.9257e+00|   -4.410266|   -4.553302|   -4.751791|   -4.646707|   -4.185913|  -11.456174|    3.760940|
|         258|  6.9244e+00|   -4.406567|   -4.540985|   -4.747206|   -4.639697|   -4.182657|  -11.450763|    3.745139|
|         259|  6.9228e+00|   -4.402629|   -4.528813|   -4.742578|   -4.632663|   -4.179241|  -11.444929|    3.729009|
|         260|  6.9211e+00|   -4.398449|   -4.516855|   -4.737907|   -4.625606|   -4.175661|  -11.438683|    3.712547|
|         261|  6.9197e+00|   -4.394046|   -4.505126|   -4.733210|   -4.618546|   -4.171930|  -11.432169|    3.695753|
|         262|  6.9191e+00|   -4.389452|   -4.493625|   -4.728514|   -4.611521|   -4.168084|  -11.425460|    3.678629|
|         263|  6.9179e+00|   -4.384670|   -4.482376|   -4.723862|   -4.604571|   -4.164134|  -11.418563|    3.661181|
|         264|  6.9171e+00|   -4.379706|   -4.471430|   -4.719296|   -4.597728|   -4.160090|  -11.411457|    3.643416|
|         265|  6.9165e+00|   -4.374553|   -4.460830|   -4.714824|   -4.591000|   -4.155934|  -11.404093|    3.625340|
|         266|  6.9155e+00|   -4.369241|   -4.450582|   -4.710430|   -4.584386|   -4.151676|  -11.396529|    3.606965|
|         267|  6.9143e+00|   -4.363812|   -4.440681|   -4.706092|   -4.577880|   -4.147345|  -11.388884|    3.588301|
|         268|  6.9130e+00|   -4.358307|   -4.431162|   -4.701781|   -4.571495|   -4.142986|  -11.381233|    3.569360|
|         269|  6.9120e+00|   -4.352723|   -4.422069|   -4.697494|   -4.565234|   -4.138604|  -11.373590|    3.550155|
|         270|  6.9108e+00|   -4.347039|   -4.413432|   -4.693221|   -4.559107|   -4.134160|  -11.365936|    3.530698|
|         271|  6.9097e+00|   -4.341247|   -4.405261|   -4.688959|   -4.553123|   -4.129629|  -11.358298|    3.511004|
|         272|  6.9086e+00|   -4.335376|   -4.397538|   -4.684726|   -4.547291|   -4.125014|  -11.350766|    3.491088|
|         273|  6.9073e+00|   -4.329500|   -4.390277|   -4.680566|   -4.541647|   -4.120401|  -11.343416|    3.470965|
|         274|  6.9059e+00|   -4.323695|   -4.383519|   -4.676537|   -4.536230|   -4.115888|  -11.336311|    3.450654|
|         275|  6.9049e+00|   -4.317994|   -4.377284|   -4.672653|   -4.531062|   -4.111514|  -11.329440|    3.430171|
|         276|  6.9041e+00|   -4.312413|   -4.371577|   -4.668902|   -4.526156|   -4.107291|  -11.322803|    3.409538|
|         277|  6.9032e+00|   -4.306948|   -4.366410|   -4.665244|   -4.521517|   -4.103215|  -11.316412|    3.388773|
|         278|  6.9025e+00|   -4.301598|   -4.361790|   -4.661658|   -4.517142|   -4.099286|  -11.310280|    3.367900|
|         279|  6.9013e+00|   -4.296366|   -4.357733|   -4.658131|   -4.513027|   -4.095513|  -11.304417|    3.346940|
|         280|  6.9003e+00|   -4.291264|   -4.354259|   -4.654663|   -4.509181|   -4.091916|  -11.298818|    3.325917|
|         281|  6.8993e+00|   -4.286301|   -4.351357|   -4.651253|   -4.505614|   -4.088494|  -11.293473|    3.304855|
|         282|  6.8988e+00|   -4.281505|   -4.349016|   -4.647913|   -4.502343|   -4.085280|  -11.288417|    3.283778|
|         283|  6.8981e+00|   -4.276903|   -4.347233|   -4.644649|   -4.499385|   -4.082314|  -11.283701|    3.262709|
|         284|  6.8972e+00|   -4.272521|   -4.346008|   -4.641480|   -4.496751|   -4.079626|  -11.279352|    3.241671|
|         285|  6.8963e+00|   -4.268358|   -4.345350|   -4.638412|   -4.494438|   -4.077219|  -11.275359|    3.220688|
|         286|  6.8952e+00|   -4.264406|   -4.345257|   -4.635453|   -4.492444|   -4.075079|  -11.271680|    3.199779|
|         287|  6.8941e+00|   -4.260662|   -4.345703|   -4.632616|   -4.490772|   -4.073193|  -11.268303|    3.178965|
|         288|  6.8928e+00|   -4.257119|   -4.346668|   -4.629898|   -4.489427|   -4.071550|  -11.265208|    3.158261|
|         289|  6.8919e+00|   -4.253790|   -4.348138|   -4.627298|   -4.488413|   -4.070165|  -11.262409|    3.137685|
|         290|  6.8906e+00|   -4.250672|   -4.350090|   -4.624815|   -4.487714|   -4.069035|  -11.259918|    3.117248|
|         291|  6.8895e+00|   -4.247747|   -4.352485|   -4.622441|   -4.487304|   -4.068131|  -11.257721|    3.096962|
|         292|  6.8884e+00|   -4.244999|   -4.355277|   -4.620166|   -4.487158|   -4.067419|  -11.255797|    3.076835|
|         293|  6.8873e+00|   -4.242414|   -4.358414|   -4.617987|   -4.487244|   -4.066867|  -11.254126|    3.056874|
|         294|  6.8862e+00|   -4.239989|   -4.361846|   -4.615908|   -4.487551|   -4.066457|  -11.252672|    3.037082|
|         295|  6.8855e+00|   -4.237723|   -4.365543|   -4.613934|   -4.488073|   -4.066190|  -11.251393|    3.017463|
|         296|  6.8844e+00|   -4.235627|   -4.369459|   -4.612086|   -4.488803|   -4.066064|  -11.250284|    2.998016|
|         297|  6.8836e+00|   -4.233704|   -4.373532|   -4.610386|   -4.489722|   -4.066070|  -11.249358|    2.978741|
|         298|  6.8828e+00|   -4.231962|   -4.377701|   -4.608854|   -4.490817|   -4.066199|  -11.248594|    2.959637|
|         299|  6.8819e+00|   -4.230394|   -4.381898|   -4.607491|   -4.492066|   -4.066431|  -11.247953|    2.940701|
|         300|  6.8811e+00|   -4.228975|   -4.386055|   -4.606282|   -4.493443|   -4.066736|  -11.247427|    2.921929|
+-----------------------------------------------------------------------+
|        File Writing Summary       |              Filename             |
+-----------------------------------------------------------------------+
|SU2 binary restart                 |restart_flow.dat                   |
|Paraview                           |flow.vtu                           |
|Paraview surface                   |surface_flow.vtu                   |
+-----------------------------------------------------------------------+
+--------------------------------------------------------------------------------------------------------------------+
|  Inner_Iter|   Time(sec)|    rms[Rho]|   rms[RhoU]|   rms[RhoV]|   rms[RhoW]|   rms[RhoE]|     rms[nu]|          CD|
+--------------------------------------------------------------------------------------------------------------------+
|         301|  6.9512e+00|   -4.227685|   -4.390104|   -4.605213|   -4.494905|   -4.067079|  -11.246976|    2.903317|
|         302|  6.9506e+00|   -4.226504|   -4.393948|   -4.604284|   -4.496390|   -4.067410|  -11.246577|    2.884863|
|         303|  6.9496e+00|   -4.225416|   -4.397515|   -4.603491|   -4.497854|   -4.067691|  -11.246221|    2.866562|
|         304|  6.9484e+00|   -4.224415|   -4.400734|   -4.602832|   -4.499260|   -4.067891|  -11.245918|    2.848410|
|         305|  6.9472e+00|   -4.223507|   -4.403532|   -4.602297|   -4.500592|   -4.068006|  -11.245692|    2.830405|
|         306|  6.9460e+00|   -4.222697|   -4.405869|   -4.601876|   -4.501837|   -4.068043|  -11.245553|    2.812542|
|         307|  6.9447e+00|   -4.221992|   -4.407718|   -4.601569|   -4.502985|   -4.068016|  -11.245481|    2.794821|
|         308|  6.9434e+00|   -4.221397|   -4.409064|   -4.601375|   -4.504024|   -4.067927|  -11.245464|    2.777237|
|         309|  6.9426e+00|   -4.220925|   -4.409909|   -4.601293|   -4.504944|   -4.067784|  -11.245491|    2.759791|
|         310|  6.9413e+00|   -4.220565|   -4.410244|   -4.601317|   -4.505714|   -4.067570|  -11.245516|    2.742481|
|         311|  6.9400e+00|   -4.220317|   -4.410079|   -4.601443|   -4.506324|   -4.067286|  -11.245499|    2.725305|
|         312|  6.9386e+00|   -4.220174|   -4.409420|   -4.601658|   -4.506769|   -4.066929|  -11.245427|    2.708264|
|         313|  6.9372e+00|   -4.220144|   -4.408324|   -4.601958|   -4.507064|   -4.066529|  -11.245311|    2.691358|
|         314|  6.9362e+00|   -4.220239|   -4.406848|   -4.602345|   -4.507228|   -4.066111|  -11.245181|    2.674586|
|         315|  6.9352e+00|   -4.220456|   -4.405048|   -4.602814|   -4.507276|   -4.065686|  -11.244987|    2.657948|
|         316|  6.9343e+00|   -4.220788|   -4.402981|   -4.603357|   -4.507229|   -4.065259|  -11.244717|    2.641447|
|         317|  6.9332e+00|   -4.221236|   -4.400715|   -4.603973|   -4.507111|   -4.064846|  -11.244335|    2.625081|
|         318|  6.9322e+00|   -4.221801|   -4.398307|   -4.604655|   -4.506954|   -4.064464|  -11.243866|    2.608853|
|         319|  6.9311e+00|   -4.222479|   -4.395796|   -4.605398|   -4.506778|   -4.064123|  -11.243329|    2.592763|
|         320|  6.9303e+00|   -4.223273|   -4.393224|   -4.606198|   -4.506613|   -4.063847|  -11.242727|    2.576814|
|         321|  6.9295e+00|   -4.224184|   -4.390627|   -4.607053|   -4.506482|   -4.063652|  -11.242050|    2.561007|
|         322|  6.9284e+00|   -4.225204|   -4.388041|   -4.607962|   -4.506402|   -4.063544|  -11.241268|    2.545343|
|         323|  6.9275e+00|   -4.226329|   -4.385528|   -4.608932|   -4.506385|   -4.063535|  -11.240388|    2.529826|
|         324|  6.9264e+00|   -4.227570|   -4.383134|   -4.609977|   -4.506442|   -4.063638|  -11.239434|    2.514456|
|         325|  6.9253e+00|   -4.228912|   -4.380890|   -4.611098|   -4.506582|   -4.063847|  -11.238428|    2.499235|
|         326|  6.9244e+00|   -4.230351|   -4.378819|   -4.612308|   -4.506826|   -4.064170|  -11.237322|    2.484166|
|         327|  6.9237e+00|   -4.231889|   -4.376938|   -4.613610|   -4.507196|   -4.064621|  -11.236127|    2.469249|
|         328|  6.9226e+00|   -4.233526|   -4.375245|   -4.615004|   -4.507701|   -4.065207|  -11.234883|    2.454485|
|         329|  6.9214e+00|   -4.235268|   -4.373771|   -4.616493|   -4.508370|   -4.065943|  -11.233606|    2.439876|
|         330|  6.9205e+00|   -4.237108|   -4.372524|   -4.618083|   -4.509207|   -4.066830|  -11.232342|    2.425421|
|         331|  6.9198e+00|   -4.239046|   -4.371516|   -4.619776|   -4.510208|   -4.067869|  -11.231065|    2.411122|
|         332|  6.9188e+00|   -4.241073|   -4.370759|   -4.621573|   -4.511366|   -4.069052|  -11.229764|    2.396979|
|         333|  6.9176e+00|   -4.243189|   -4.370260|   -4.623468|   -4.512684|   -4.070378|  -11.228450|    2.382992|
|         334|  6.9167e+00|   -4.245383|   -4.370018|   -4.625448|   -4.514165|   -4.071842|  -11.227138|    2.369160|
|         335|  6.9157e+00|   -4.247663|   -4.370020|   -4.627509|   -4.515803|   -4.073440|  -11.225845|    2.355484|
|         336|  6.9149e+00|   -4.250024|   -4.370260|   -4.629652|   -4.517593|   -4.075165|  -11.224607|    2.341963|
|         337|  6.9140e+00|   -4.252467|   -4.370747|   -4.631876|   -4.519525|   -4.077019|  -11.223431|    2.328596|
|         338|  6.9130e+00|   -4.254999|   -4.371490|   -4.634177|   -4.521607|   -4.079011|  -11.222315|    2.315385|
|         339|  6.9121e+00|   -4.257602|   -4.372473|   -4.636544|   -4.523814|   -4.081119|  -11.221244|    2.302327|
|         340|  6.9111e+00|   -4.260275|   -4.373692|   -4.638971|   -4.526138|   -4.083345|  -11.220208|    2.289424|
|         341|  6.9102e+00|   -4.263023|   -4.375137|   -4.641450|   -4.528580|   -4.085691|  -11.219186|    2.276674|
|         342|  6.9092e+00|   -4.265839|   -4.376803|   -4.643978|   -4.531134|   -4.088151|  -11.218171|    2.264078|
|         343|  6.9082e+00|   -4.268728|   -4.378677|   -4.646549|   -4.533785|   -4.090723|  -11.217175|    2.251635|
|         344|  6.9074e+00|   -4.271686|   -4.380755|   -4.649173|   -4.536525|   -4.093404|  -11.216183|    2.239346|
|         345|  6.9067e+00|   -4.274699|   -4.383028|   -4.651849|   -4.539350|   -4.096180|  -11.215166|    2.227209|
|         346|  6.9057e+00|   -4.277758|   -4.385489|   -4.654573|   -4.542251|   -4.099041|  -11.214107|    2.215227|
|         347|  6.9045e+00|   -4.280853|   -4.388121|   -4.657334|   -4.545211|   -4.101973|  -11.212981|    2.203398|
|         348|  6.9035e+00|   -4.283979|   -4.390922|   -4.660124|   -4.548223|   -4.104972|  -11.211749|    2.191724|
|         349|  6.9026e+00|   -4.287135|   -4.393885|   -4.662935|   -4.551270|   -4.108033|  -11.210422|    2.180206|
|         350|  6.9017e+00|   -4.290313|   -4.396996|   -4.665754|   -4.554336|   -4.111145|  -11.208983|    2.168845|
|         351|  6.9009e+00|   -4.293519|   -4.400251|   -4.668573|   -4.557414|   -4.114312|  -11.207439|    2.157645|
|         352|  6.9000e+00|   -4.296752|   -4.403641|   -4.671387|   -4.560505|   -4.117537|  -11.205793|    2.146608|
|         353|  6.8992e+00|   -4.300006|   -4.407154|   -4.674187|   -4.563598|   -4.120810|  -11.204007|    2.135736|
|         354|  6.8983e+00|   -4.303275|   -4.410787|   -4.676966|   -4.566692|   -4.124126|  -11.202068|    2.125034|
|         355|  6.8976e+00|   -4.306558|   -4.414534|   -4.679725|   -4.569778|   -4.127479|  -11.199961|    2.114504|
|         356|  6.8966e+00|   -4.309863|   -4.418391|   -4.682464|   -4.572859|   -4.130874|  -11.197695|    2.104150|
|         357|  6.8958e+00|   -4.313180|   -4.422352|   -4.685181|   -4.575926|   -4.134303|  -11.195255|    2.093977|
|         358|  6.8949e+00|   -4.316510|   -4.426416|   -4.687878|   -4.578971|   -4.137766|  -11.192681|    2.083988|
|         359|  6.8940e+00|   -4.319847|   -4.430560|   -4.690552|   -4.581991|   -4.141252|  -11.189967|    2.074186|
|         360|  6.8930e+00|   -4.323187|   -4.434768|   -4.693201|   -4.584977|   -4.144757|  -11.187066|    2.064575|
|         361|  6.8920e+00|   -4.326526|   -4.439026|   -4.695820|   -4.587924|   -4.148277|  -11.183975|    2.055160|
|         362|  6.8913e+00|   -4.329862|   -4.443327|   -4.698409|   -4.590822|   -4.151816|  -11.180709|    2.045942|
|         363|  6.8904e+00|   -4.333189|   -4.447661|   -4.700966|   -4.593657|   -4.155364|  -11.177241|    2.036926|
|         364|  6.8895e+00|   -4.336495|   -4.452022|   -4.703485|   -4.596420|   -4.158908|  -11.173536|    2.028114|
|         365|  6.8890e+00|   -4.339769|   -4.456395|   -4.705963|   -4.599104|   -4.162434|  -11.169591|    2.019509|
|         366|  6.8884e+00|   -4.343007|   -4.460772|   -4.708386|   -4.601701|   -4.165933|  -11.165461|    2.011113|
|         367|  6.8878e+00|   -4.346209|   -4.465123|   -4.710762|   -4.604212|   -4.169396|  -11.161163|    2.002930|
|         368|  6.8871e+00|   -4.349375|   -4.469441|   -4.713088|   -4.606645|   -4.172825|  -11.156675|    1.994962|
|         369|  6.8861e+00|   -4.352503|   -4.473726|   -4.715361|   -4.609012|   -4.176224|  -11.152063|    1.987211|
|         370|  6.8852e+00|   -4.355604|   -4.477977|   -4.717584|   -4.611316|   -4.179607|  -11.147307|    1.979678|
|         371|  6.8847e+00|   -4.358671|   -4.482178|   -4.719753|   -4.613547|   -4.182960|  -11.142433|    1.972365|
|         372|  6.8839e+00|   -4.361699|   -4.486323|   -4.721862|   -4.615701|   -4.186280|  -11.137460|    1.965273|
|         373|  6.8829e+00|   -4.364689|   -4.490406|   -4.723912|   -4.617769|   -4.189565|  -11.132378|    1.958403|
|         374|  6.8820e+00|   -4.367622|   -4.494414|   -4.725896|   -4.619738|   -4.192800|  -11.127224|    1.951755|
|         375|  6.8809e+00|   -4.370481|   -4.498335|   -4.727811|   -4.621589|   -4.195963|  -11.122000|    1.945328|
|         376|  6.8800e+00|   -4.373254|   -4.502157|   -4.729654|   -4.623315|   -4.199044|  -11.116670|    1.939121|
|         377|  6.8792e+00|   -4.375933|   -4.505876|   -4.731424|   -4.624907|   -4.202034|  -11.111235|    1.933134|
|         378|  6.8785e+00|   -4.378510|   -4.509490|   -4.733122|   -4.626364|   -4.204930|  -11.105730|    1.927366|
|         379|  6.8776e+00|   -4.380980|   -4.512995|   -4.734748|   -4.627687|   -4.207728|  -11.100205|    1.921815|
|         380|  6.8771e+00|   -4.383340|   -4.516391|   -4.736303|   -4.628885|   -4.210433|  -11.094693|    1.916480|
|         381|  6.8763e+00|   -4.385591|   -4.519675|   -4.737801|   -4.629959|   -4.213050|  -11.089193|    1.911360|
|         382|  6.8756e+00|   -4.387732|   -4.522844|   -4.739245|   -4.630907|   -4.215575|  -11.083684|    1.906455|
|         383|  6.8746e+00|   -4.389757|   -4.525897|   -4.740638|   -4.631727|   -4.218010|  -11.078173|    1.901763|
|         384|  6.8737e+00|   -4.391659|   -4.528829|   -4.741978|   -4.632410|   -4.220342|  -11.072625|    1.897284|
|         385|  6.8731e+00|   -4.393423|   -4.531637|   -4.743257|   -4.632941|   -4.222560|  -11.067037|    1.893017|
|         386|  6.8725e+00|   -4.395048|   -4.534322|   -4.744467|   -4.633313|   -4.224660|  -11.061462|    1.888961|
|         387|  6.8715e+00|   -4.396522|   -4.536879|   -4.745602|   -4.633513|   -4.226628|  -11.055936|    1.885116|
|         388|  6.8708e+00|   -4.397839|   -4.539308|   -4.746655|   -4.633535|   -4.228462|  -11.050451|    1.881480|
|         389|  6.8703e+00|   -4.398997|   -4.541611|   -4.747629|   -4.633372|   -4.230156|  -11.044995|    1.878053|
|         390|  6.8694e+00|   -4.399985|   -4.543788|   -4.748524|   -4.633024|   -4.231703|  -11.039522|    1.874833|
|         391|  6.8689e+00|   -4.400802|   -4.545842|   -4.749344|   -4.632495|   -4.233102|  -11.034031|    1.871818|
|         392|  6.8684e+00|   -4.401440|   -4.547765|   -4.750093|   -4.631785|   -4.234343|  -11.028530|    1.869006|
|         393|  6.8677e+00|   -4.401885|   -4.549548|   -4.750762|   -4.630888|   -4.235410|  -11.023079|    1.866396|
|         394|  6.8668e+00|   -4.402130|   -4.551180|   -4.751346|   -4.629802|   -4.236297|  -11.017691|    1.863985|
|         395|  6.8663e+00|   -4.402171|   -4.552657|   -4.751836|   -4.628523|   -4.236998|  -11.012350|    1.861769|
|         396|  6.8656e+00|   -4.402003|   -4.553975|   -4.752227|   -4.627046|   -4.237507|  -11.007071|    1.859747|
|         397|  6.8650e+00|   -4.401628|   -4.555131|   -4.752512|   -4.625370|   -4.237825|  -11.001866|    1.857915|
|         398|  6.8643e+00|   -4.401044|   -4.556124|   -4.752691|   -4.623492|   -4.237949|  -10.996737|    1.856270|
|         399|  6.8636e+00|   -4.400250|   -4.556951|   -4.752758|   -4.621414|   -4.237877|  -10.991694|    1.854809|
|         400|  6.8631e+00|   -4.399244|   -4.557601|   -4.752709|   -4.619138|   -4.237600|  -10.986742|    1.853527|
|         401|  6.8625e+00|   -4.398023|   -4.558070|   -4.752532|   -4.616667|   -4.237118|  -10.981894|    1.852422|
|         402|  6.8618e+00|   -4.396581|   -4.558349|   -4.752220|   -4.614007|   -4.236424|  -10.977147|    1.851490|
|         403|  6.8610e+00|   -4.394919|   -4.558434|   -4.751765|   -4.611163|   -4.235516|  -10.972511|    1.850727|
|         404|  6.8605e+00|   -4.393040|   -4.558324|   -4.751160|   -4.608143|   -4.234395|  -10.967921|    1.850130|
|         405|  6.8597e+00|   -4.390944|   -4.558020|   -4.750398|   -4.604954|   -4.233059|  -10.963397|    1.849696|
|         406|  6.8589e+00|   -4.388635|   -4.557525|   -4.749470|   -4.601602|   -4.231511|  -10.958946|    1.849421|
|         407|  6.8583e+00|   -4.386114|   -4.556840|   -4.748371|   -4.598094|   -4.229750|  -10.954556|    1.849302|
|         408|  6.8577e+00|   -4.383387|   -4.555967|   -4.747100|   -4.594430|   -4.227779|  -10.950222|    1.849336|
|         409|  6.8572e+00|   -4.380459|   -4.554905|   -4.745658|   -4.590617|   -4.225601|  -10.945923|    1.849521|
|         410|  6.8568e+00|   -4.377340|   -4.553660|   -4.744051|   -4.586661|   -4.223223|  -10.941707|    1.849854|
|         411|  6.8561e+00|   -4.374043|   -4.552235|   -4.742280|   -4.582577|   -4.220658|  -10.937554|    1.850333|
|         412|  6.8554e+00|   -4.370577|   -4.550635|   -4.740344|   -4.578376|   -4.217911|  -10.933451|    1.850957|
|         413|  6.8548e+00|   -4.366954|   -4.548869|   -4.738246|   -4.574069|   -4.214994|  -10.929438|    1.851722|
|         414|  6.8543e+00|   -4.363188|   -4.546944|   -4.735989|   -4.569673|   -4.211921|  -10.925499|    1.852629|
|         415|  6.8537e+00|   -4.359287|   -4.544870|   -4.733576|   -4.565199|   -4.208699|  -10.921576|    1.853676|
|         416|  6.8531e+00|   -4.355263|   -4.542653|   -4.731010|   -4.560661|   -4.205340|  -10.917619|    1.854861|
|         417|  6.8526e+00|   -4.351125|   -4.540303|   -4.728294|   -4.556072|   -4.201853|  -10.913619|    1.856183|
|         418|  6.8520e+00|   -4.346880|   -4.537833|   -4.725437|   -4.551439|   -4.198249|  -10.909604|    1.857641|
|         419|  6.8516e+00|   -4.342541|   -4.535255|   -4.722446|   -4.546774|   -4.194538|  -10.905587|    1.859235|
|         420|  6.8509e+00|   -4.338131|   -4.532580|   -4.719334|   -4.542103|   -4.190746|  -10.901601|    1.860962|
|         421|  6.8503e+00|   -4.333654|   -4.529817|   -4.716111|   -4.537429|   -4.186877|  -10.897673|    1.862821|
|         422|  6.8499e+00|   -4.329128|   -4.526977|   -4.712781|   -4.532767|   -4.182947|  -10.893786|    1.864811|
|         423|  6.8495e+00|   -4.324554|   -4.524067|   -4.709352|   -4.528121|   -4.178959|  -10.889946|    1.866931|
|         424|  6.8492e+00|   -4.319948|   -4.521097|   -4.705833|   -4.523506|   -4.174930|  -10.886179|    1.869178|
|         425|  6.8483e+00|   -4.315320|   -4.518076|   -4.702233|   -4.518931|   -4.170869|  -10.882453|    1.871553|
|         426|  6.8475e+00|   -4.310681|   -4.515013|   -4.698562|   -4.514407|   -4.166788|  -10.878762|    1.874053|
|         427|  6.8470e+00|   -4.306039|   -4.511919|   -4.694829|   -4.509942|   -4.162697|  -10.875094|    1.876677|
|         428|  6.8465e+00|   -4.301405|   -4.508807|   -4.691043|   -4.505554|   -4.158610|  -10.871429|    1.879423|
|         429|  6.8458e+00|   -4.296790|   -4.505684|   -4.687212|   -4.501249|   -4.154539|  -10.867745|    1.882291|
|         430|  6.8452e+00|   -4.292199|   -4.502558|   -4.683344|   -4.497028|   -4.150488|  -10.864084|    1.885279|
|         431|  6.8447e+00|   -4.287634|   -4.499431|   -4.679445|   -4.492889|   -4.146457|  -10.860461|    1.888385|
|         432|  6.8440e+00|   -4.283097|   -4.496307|   -4.675519|   -4.488827|   -4.142446|  -10.856860|    1.891608|
|         433|  6.8435e+00|   -4.278597|   -4.493188|   -4.671574|   -4.484850|   -4.138466|  -10.853271|    1.894946|
|         434|  6.8432e+00|   -4.274135|   -4.490075|   -4.667613|   -4.480954|   -4.134514|  -10.849688|    1.898396|
|         435|  6.8425e+00|   -4.269713|   -4.486970|   -4.663644|   -4.477139|   -4.130592|  -10.846108|    1.901957|
|         436|  6.8417e+00|   -4.265332|   -4.483871|   -4.659673|   -4.473407|   -4.126705|  -10.842527|    1.905627|
|         437|  6.8410e+00|   -4.260994|   -4.480780|   -4.655706|   -4.469756|   -4.122852|  -10.838929|    1.909403|
|         438|  6.8405e+00|   -4.256706|   -4.477694|   -4.651751|   -4.466195|   -4.119038|  -10.835320|    1.913282|
|         439|  6.8401e+00|   -4.252462|   -4.474605|   -4.647815|   -4.462720|   -4.115260|  -10.831685|    1.917261|
|         440|  6.8398e+00|   -4.248262|   -4.471513|   -4.643900|   -4.459332|   -4.111515|  -10.828057|    1.921338|
|         441|  6.8392e+00|   -4.244109|   -4.468413|   -4.640015|   -4.456038|   -4.107811|  -10.824445|    1.925509|
|         442|  6.8386e+00|   -4.240004|   -4.465302|   -4.636161|   -4.452834|   -4.104144|  -10.820836|    1.929770|
|         443|  6.8382e+00|   -4.235948|   -4.462182|   -4.632338|   -4.449723|   -4.100515|  -10.817254|    1.934119|
|         444|  6.8378e+00|   -4.231951|   -4.459058|   -4.628555|   -4.446710|   -4.096936|  -10.813723|    1.938551|
|         445|  6.8373e+00|   -4.228013|   -4.455933|   -4.624813|   -4.443793|   -4.093408|  -10.810212|    1.943062|
|         446|  6.8367e+00|   -4.224132|   -4.452806|   -4.621107|   -4.440965|   -4.089923|  -10.806674|    1.947649|
|         447|  6.8362e+00|   -4.220319|   -4.449679|   -4.617444|   -4.438224|   -4.086487|  -10.803103|    1.952308|
|         448|  6.8354e+00|   -4.216559|   -4.446551|   -4.613817|   -4.435558|   -4.083087|  -10.799522|    1.957034|
|         449|  6.8348e+00|   -4.212857|   -4.443426|   -4.610226|   -4.432966|   -4.079727|  -10.795922|    1.961824|
|         450|  6.8340e+00|   -4.209219|   -4.440304|   -4.606673|   -4.430447|   -4.076412|  -10.792293|    1.966675|
+-----------------------------------------------------------------------+
|        File Writing Summary       |              Filename             |
+-----------------------------------------------------------------------+
|SU2 binary restart                 |restart_flow.dat                   |
|Paraview                           |flow.vtu                           |
|Paraview surface                   |surface_flow.vtu                   |
+-----------------------------------------------------------------------+
+--------------------------------------------------------------------------------------------------------------------+
|  Inner_Iter|   Time(sec)|    rms[Rho]|   rms[RhoU]|   rms[RhoV]|   rms[RhoW]|   rms[RhoE]|     rms[nu]|          CD|
+--------------------------------------------------------------------------------------------------------------------+
|         451|  6.8908e+00|   -4.205647|   -4.437191|   -4.603166|   -4.428003|   -4.073147|  -10.788648|    1.971581|
|         452|  6.8912e+00|   -4.202151|   -4.434092|   -4.599710|   -4.425641|   -4.069945|  -10.784968|    1.976541|
|         453|  6.8911e+00|   -4.198728|   -4.431008|   -4.596305|   -4.423351|   -4.066798|  -10.781274|    1.981551|
|         454|  6.8904e+00|   -4.195364|   -4.427928|   -4.592951|   -4.421112|   -4.063689|  -10.777563|    1.986608|
|         455|  6.8898e+00|   -4.192069|   -4.424853|   -4.589656|   -4.418934|   -4.060632|  -10.773819|    1.991712|
|         456|  6.8893e+00|   -4.188838|   -4.421783|   -4.586420|   -4.416815|   -4.057620|  -10.770018|    1.996859|
|         457|  6.8888e+00|   -4.185687|   -4.418719|   -4.583245|   -4.414772|   -4.054672|  -10.766163|    2.002050|
|         458|  6.8881e+00|   -4.182605|   -4.415659|   -4.580131|   -4.412797|   -4.051775|  -10.762276|    2.007285|
|         459|  6.8873e+00|   -4.179592|   -4.412604|   -4.577077|   -4.410892|   -4.048931|  -10.758369|    2.012565|
|         460|  6.8865e+00|   -4.176653|   -4.409557|   -4.574087|   -4.409059|   -4.046146|  -10.754460|    2.017889|
|         461|  6.8857e+00|   -4.173794|   -4.406521|   -4.571163|   -4.407295|   -4.043425|  -10.750555|    2.023259|
|         462|  6.8851e+00|   -4.171021|   -4.403497|   -4.568309|   -4.405601|   -4.040771|  -10.746645|    2.028677|
|         463|  6.8843e+00|   -4.168329|   -4.400485|   -4.565516|   -4.403973|   -4.038180|  -10.742710|    2.034144|
|         464|  6.8835e+00|   -4.165709|   -4.397482|   -4.562791|   -4.402408|   -4.035647|  -10.738747|    2.039660|
|         465|  6.8828e+00|   -4.163160|   -4.394487|   -4.560138|   -4.400909|   -4.033173|  -10.734768|    2.045228|
|         466|  6.8822e+00|   -4.160677|   -4.391499|   -4.557558|   -4.399473|   -4.030754|  -10.730783|    2.050846|
|         467|  6.8815e+00|   -4.158261|   -4.388517|   -4.555043|   -4.398107|   -4.028390|  -10.726799|    2.056514|
|         468|  6.8807e+00|   -4.155905|   -4.385543|   -4.552599|   -4.396809|   -4.026079|  -10.722824|    2.062233|
|         469|  6.8800e+00|   -4.153603|   -4.382573|   -4.550221|   -4.395576|   -4.023812|  -10.718829|    2.068001|
|         470|  6.8795e+00|   -4.151348|   -4.379608|   -4.547908|   -4.394406|   -4.021589|  -10.714818|    2.073815|
|         471|  6.8787e+00|   -4.149143|   -4.376652|   -4.545662|   -4.393292|   -4.019410|  -10.710811|    2.079675|
|         472|  6.8779e+00|   -4.146990|   -4.373713|   -4.543491|   -4.392241|   -4.017284|  -10.706798|    2.085577|
|         473|  6.8772e+00|   -4.144887|   -4.370797|   -4.541396|   -4.391249|   -4.015208|  -10.702767|    2.091520|
|         474|  6.8767e+00|   -4.142843|   -4.367904|   -4.539386|   -4.390327|   -4.013195|  -10.698701|    2.097499|
|         475|  6.8761e+00|   -4.140862|   -4.365040|   -4.537466|   -4.389477|   -4.011248|  -10.694570|    2.103513|
|         476|  6.8754e+00|   -4.138936|   -4.362204|   -4.535625|   -4.388695|   -4.009356|  -10.690383|    2.109559|
|         477|  6.8748e+00|   -4.137061|   -4.359399|   -4.533860|   -4.387966|   -4.007510|  -10.686165|    2.115633|
|         478|  6.8742e+00|   -4.135232|   -4.356627|   -4.532166|   -4.387281|   -4.005703|  -10.681922|    2.121733|
|         479|  6.8737e+00|   -4.133457|   -4.353896|   -4.530543|   -4.386644|   -4.003946|  -10.677642|    2.127857|
|         480|  6.8733e+00|   -4.131750|   -4.351218|   -4.528996|   -4.386065|   -4.002253|  -10.673346|    2.134003|
|         481|  6.8729e+00|   -4.130112|   -4.348598|   -4.527520|   -4.385551|   -4.000631|  -10.669029|    2.140168|
|         482|  6.8723e+00|   -4.128531|   -4.346036|   -4.526112|   -4.385081|   -3.999060|  -10.664686|    2.146350|
|         483|  6.8719e+00|   -4.127014|   -4.343539|   -4.524774|   -4.384658|   -3.997552|  -10.660333|    2.152550|
|         484|  6.8714e+00|   -4.125563|   -4.341109|   -4.523509|   -4.384290|   -3.996111|  -10.655959|    2.158765|
|         485|  6.8709e+00|   -4.124173|   -4.338745|   -4.522309|   -4.383967|   -3.994731|  -10.651571|    2.164994|
|         486|  6.8703e+00|   -4.122852|   -4.336452|   -4.521173|   -4.383705|   -3.993420|  -10.647197|    2.171237|
|         487|  6.8697e+00|   -4.121613|   -4.334239|   -4.520106|   -4.383526|   -3.992200|  -10.642839|    2.177493|
|         488|  6.8691e+00|   -4.120440|   -4.332103|   -4.519094|   -4.383401|   -3.991044|  -10.638494|    2.183762|
|         489|  6.8686e+00|   -4.119323|   -4.330046|   -4.518132|   -4.383311|   -3.989942|  -10.634147|    2.190043|
|         490|  6.8681e+00|   -4.118270|   -4.328073|   -4.517224|   -4.383265|   -3.988910|  -10.629803|    2.196335|
|         491|  6.8676e+00|   -4.117285|   -4.326193|   -4.516367|   -4.383275|   -3.987954|  -10.625468|    2.202639|
|         492|  6.8672e+00|   -4.116360|   -4.324406|   -4.515569|   -4.383331|   -3.987066|  -10.621161|    2.208953|
|         493|  6.8667e+00|   -4.115491|   -4.322710|   -4.514833|   -4.383426|   -3.986241|  -10.616862|    2.215276|
|         494|  6.8662e+00|   -4.114673|   -4.321103|   -4.514155|   -4.383565|   -3.985479|  -10.612564|    2.221608|
|         495|  6.8657e+00|   -4.113909|   -4.319588|   -4.513539|   -4.383759|   -3.984782|  -10.608244|    2.227945|
|         496|  6.8652e+00|   -4.113187|   -4.318159|   -4.512990|   -4.383989|   -3.984138|  -10.603901|    2.234287|
|         497|  6.8647e+00|   -4.112499|   -4.316812|   -4.512509|   -4.384251|   -3.983537|  -10.599523|    2.240631|
|         498|  6.8641e+00|   -4.111848|   -4.315548|   -4.512108|   -4.384540|   -3.982982|  -10.595094|    2.246974|
|         499|  6.8637e+00|   -4.111225|   -4.314364|   -4.511772|   -4.384848|   -3.982463|  -10.590605|    2.253314|
|         500|  6.8631e+00|   -4.110640|   -4.313262|   -4.511502|   -4.385175|   -3.981987|  -10.586075|    2.259647|
|         501|  6.8624e+00|   -4.110087|   -4.312247|   -4.511293|   -4.385511|   -3.981549|  -10.581502|    2.265972|
|         502|  6.8618e+00|   -4.109559|   -4.311313|   -4.511133|   -4.385843|   -3.981138|  -10.576877|    2.272284|
|         503|  6.8612e+00|   -4.109063|   -4.310464|   -4.511022|   -4.386176|   -3.980759|  -10.572211|    2.278580|
|         504|  6.8605e+00|   -4.108601|   -4.309700|   -4.510955|   -4.386504|   -3.980416|  -10.567523|    2.284858|
|         505|  6.8597e+00|   -4.108178|   -4.309021|   -4.510941|   -4.386827|   -3.980112|  -10.562823|    2.291113|
|         506|  6.8590e+00|   -4.107788|   -4.308428|   -4.510969|   -4.387130|   -3.979838|  -10.558081|    2.297342|
|         507|  6.8584e+00|   -4.107433|   -4.307917|   -4.511030|   -4.387417|   -3.979597|  -10.553313|    2.303542|
|         508|  6.8579e+00|   -4.107118|   -4.307488|   -4.511120|   -4.387699|   -3.979397|  -10.548526|    2.309709|
|         509|  6.8572e+00|   -4.106847|   -4.307143|   -4.511232|   -4.387980|   -3.979241|  -10.543720|    2.315840|
|         510|  6.8566e+00|   -4.106614|   -4.306879|   -4.511371|   -4.388249|   -3.979122|  -10.538906|    2.321930|
|         511|  6.8560e+00|   -4.106419|   -4.306692|   -4.511532|   -4.388506|   -3.979038|  -10.534096|    2.327976|
|         512|  6.8556e+00|   -4.106264|   -4.306584|   -4.511721|   -4.388751|   -3.978989|  -10.529323|    2.333975|
|         513|  6.8552e+00|   -4.106148|   -4.306550|   -4.511932|   -4.388987|   -3.978975|  -10.524614|    2.339924|
|         514|  6.8547e+00|   -4.106070|   -4.306590|   -4.512169|   -4.389214|   -3.978994|  -10.519958|    2.345821|
|         515|  6.8544e+00|   -4.106044|   -4.306704|   -4.512440|   -4.389468|   -3.979067|  -10.515334|    2.351663|
|         516|  6.8541e+00|   -4.106061|   -4.306893|   -4.512744|   -4.389730|   -3.979179|  -10.510719|    2.357448|
|         517|  6.8536e+00|   -4.106120|   -4.307156|   -4.513081|   -4.390009|   -3.979331|  -10.506095|    2.363174|
|         518|  6.8530e+00|   -4.106230|   -4.307492|   -4.513458|   -4.390319|   -3.979536|  -10.501468|    2.368839|
|         519|  6.8524e+00|   -4.106385|   -4.307899|   -4.513869|   -4.390659|   -3.979786|  -10.496827|    2.374442|
|         520|  6.8517e+00|   -4.106587|   -4.308375|   -4.514319|   -4.391033|   -3.980089|  -10.492194|    2.379980|
|         521|  6.8510e+00|   -4.106835|   -4.308921|   -4.514811|   -4.391446|   -3.980441|  -10.487552|    2.385452|
|         522|  6.8505e+00|   -4.107125|   -4.309535|   -4.515344|   -4.391892|   -3.980838|  -10.482891|    2.390856|
|         523|  6.8499e+00|   -4.107460|   -4.310213|   -4.515927|   -4.392378|   -3.981285|  -10.478204|    2.396188|
|         524|  6.8492e+00|   -4.107844|   -4.310958|   -4.516567|   -4.392914|   -3.981788|  -10.473469|    2.401448|
|         525|  6.8487e+00|   -4.108274|   -4.311763|   -4.517265|   -4.393492|   -3.982338|  -10.468673|    2.406634|
|         526|  6.8481e+00|   -4.108767|   -4.312629|   -4.518035|   -4.394140|   -3.982960|  -10.463788|    2.411743|
|         527|  6.8475e+00|   -4.109318|   -4.313557|   -4.518872|   -4.394846|   -3.983642|  -10.458833|    2.416774|
|         528|  6.8469e+00|   -4.109917|   -4.314544|   -4.519767|   -4.395596|   -3.984365|  -10.453824|    2.421726|
|         529|  6.8464e+00|   -4.110570|   -4.315593|   -4.520723|   -4.396397|   -3.985140|  -10.448777|    2.426598|
|         530|  6.8459e+00|   -4.111280|   -4.316709|   -4.521744|   -4.397260|   -3.985974|  -10.443717|    2.431390|
|         531|  6.8456e+00|   -4.112053|   -4.317887|   -4.522832|   -4.398193|   -3.986870|  -10.438650|    2.436100|
|         532|  6.8451e+00|   -4.112892|   -4.319133|   -4.523982|   -4.399190|   -3.987833|  -10.433572|    2.440730|
|         533|  6.8447e+00|   -4.113794|   -4.320441|   -4.525191|   -4.400257|   -3.988857|  -10.428509|    2.445280|
|         534|  6.8443e+00|   -4.114762|   -4.321810|   -4.526465|   -4.401403|   -3.989950|  -10.423474|    2.449749|
|         535|  6.8440e+00|   -4.115793|   -4.323243|   -4.527802|   -4.402629|   -3.991107|  -10.418486|    2.454138|
|         536|  6.8434e+00|   -4.116878|   -4.324727|   -4.529193|   -4.403920|   -3.992315|  -10.413543|    2.458449|
|         537|  6.8429e+00|   -4.118020|   -4.326260|   -4.530635|   -4.405281|   -3.993577|  -10.408659|    2.462680|
|         538|  6.8424e+00|   -4.119215|   -4.327835|   -4.532119|   -4.406704|   -3.994891|  -10.403848|    2.466834|
[...]
|        5140|  6.7894e+00|   -7.948478|   -7.944070|   -8.238545|   -8.208200|   -7.808764|   -8.601041|    2.414105|
|        5141|  6.7894e+00|   -7.948013|   -7.944365|   -8.238052|   -8.208225|   -7.808642|   -8.601335|    2.414105|
|        5142|  6.7893e+00|   -7.947562|   -7.944674|   -8.237594|   -8.208264|   -7.808537|   -8.601629|    2.414106|
|        5143|  6.7893e+00|   -7.947125|   -7.944995|   -8.237171|   -8.208318|   -7.808448|   -8.601923|    2.414106|
|        5144|  6.7892e+00|   -7.946703|   -7.945327|   -8.236786|   -8.208386|   -7.808375|   -8.602217|    2.414106|
|        5145|  6.7892e+00|   -7.946296|   -7.945668|   -8.236439|   -8.208468|   -7.808318|   -8.602510|    2.414107|
|        5146|  6.7891e+00|   -7.945905|   -7.946018|   -8.236132|   -8.208564|   -7.808276|   -8.602804|    2.414107|
|        5147|  6.7891e+00|   -7.945529|   -7.946374|   -8.235866|   -8.208674|   -7.808249|   -8.603097|    2.414107|
|        5148|  6.7891e+00|   -7.945169|   -7.946735|   -8.235641|   -8.208799|   -7.808235|   -8.603390|    2.414108|
|        5149|  6.7890e+00|   -7.944824|   -7.947100|   -8.235458|   -8.208938|   -7.808235|   -8.603683|    2.414108|
|        5150|  6.7890e+00|   -7.944496|   -7.947467|   -8.235319|   -8.209091|   -7.808248|   -8.603977|    2.414109|
|        5151|  6.7890e+00|   -7.944184|   -7.947835|   -8.235223|   -8.209257|   -7.808273|   -8.604270|    2.414109|
|        5152|  6.7889e+00|   -7.943889|   -7.948203|   -8.235172|   -8.209438|   -7.808310|   -8.604563|    2.414109|
|        5153|  6.7889e+00|   -7.943611|   -7.948569|   -8.235166|   -8.209632|   -7.808358|   -8.604856|    2.414110|
|        5154|  6.7888e+00|   -7.943350|   -7.948933|   -8.235205|   -8.209840|   -7.808418|   -8.605150|    2.414110|
|        5155|  6.7888e+00|   -7.943106|   -7.949293|   -8.235290|   -8.210062|   -7.808488|   -8.605443|    2.414110|
|        5156|  6.7887e+00|   -7.942881|   -7.949649|   -8.235420|   -8.210296|   -7.808569|   -8.605737|    2.414110|
|        5157|  6.7887e+00|   -7.942673|   -7.949999|   -8.235595|   -8.210544|   -7.808659|   -8.606031|    2.414111|
|        5158|  6.7887e+00|   -7.942484|   -7.950342|   -8.235816|   -8.210805|   -7.808758|   -8.606324|    2.414111|
|        5159|  6.7886e+00|   -7.942312|   -7.950675|   -8.236082|   -8.211079|   -7.808865|   -8.606619|    2.414111|
|        5160|  6.7886e+00|   -7.942158|   -7.950999|   -8.236393|   -8.211365|   -7.808980|   -8.606913|    2.414112|
|        5161|  6.7885e+00|   -7.942022|   -7.951313|   -8.236748|   -8.211663|   -7.809102|   -8.607207|    2.414112|
|        5162|  6.7885e+00|   -7.941905|   -7.951615|   -8.237147|   -8.211974|   -7.809231|   -8.607502|    2.414112|
|        5163|  6.7884e+00|   -7.941805|   -7.951904|   -8.237590|   -8.212296|   -7.809366|   -8.607797|    2.414112|
|        5164|  6.7884e+00|   -7.941724|   -7.952180|   -8.238075|   -8.212630|   -7.809507|   -8.608093|    2.414113|
|        5165|  6.7883e+00|   -7.941661|   -7.952441|   -8.238603|   -8.212975|   -7.809653|   -8.608388|    2.414113|
|        5166|  6.7883e+00|   -7.941617|   -7.952690|   -8.239172|   -8.213331|   -7.809805|   -8.608684|    2.414113|
|        5167|  6.7883e+00|   -7.941593|   -7.952925|   -8.239782|   -8.213698|   -7.809963|   -8.608981|    2.414113|
|        5168|  6.7882e+00|   -7.941587|   -7.953146|   -8.240432|   -8.214075|   -7.810126|   -8.609278|    2.414114|
|        5169|  6.7882e+00|   -7.941600|   -7.953351|   -8.241120|   -8.214463|   -7.810292|   -8.609575|    2.414114|
|        5170|  6.7882e+00|   -7.941632|   -7.953540|   -8.241846|   -8.214860|   -7.810463|   -8.609873|    2.414114|
|        5171|  6.7881e+00|   -7.941683|   -7.953715|   -8.242609|   -8.215266|   -7.810638|   -8.610171|    2.414114|
|        5172|  6.7881e+00|   -7.941753|   -7.953874|   -8.243406|   -8.215682|   -7.810817|   -8.610469|    2.414115|
|        5173|  6.7880e+00|   -7.941843|   -7.954019|   -8.244237|   -8.216106|   -7.811000|   -8.610768|    2.414115|
|        5174|  6.7880e+00|   -7.941952|   -7.954150|   -8.245101|   -8.216540|   -7.811187|   -8.611067|    2.414115|
|        5175|  6.7880e+00|   -7.942081|   -7.954267|   -8.245996|   -8.216981|   -7.811379|   -8.611367|    2.414115|
|        5176|  6.7879e+00|   -7.942230|   -7.954372|   -8.246920|   -8.217430|   -7.811575|   -8.611668|    2.414115|
|        5177|  6.7879e+00|   -7.942398|   -7.954465|   -8.247872|   -8.217887|   -7.811775|   -8.611968|    2.414115|
|        5178|  6.7878e+00|   -7.942587|   -7.954548|   -8.248850|   -8.218352|   -7.811981|   -8.612270|    2.414116|
|        5179|  6.7878e+00|   -7.942796|   -7.954620|   -8.249853|   -8.218823|   -7.812191|   -8.612572|    2.414116|
|        5180|  6.7877e+00|   -7.943024|   -7.954683|   -8.250878|   -8.219301|   -7.812405|   -8.612874|    2.414116|
|        5181|  6.7877e+00|   -7.943272|   -7.954737|   -8.251924|   -8.219785|   -7.812625|   -8.613177|    2.414116|
|        5182|  6.7877e+00|   -7.943539|   -7.954783|   -8.252988|   -8.220276|   -7.812849|   -8.613481|    2.414116|
|        5183|  6.7876e+00|   -7.943825|   -7.954822|   -8.254070|   -8.220771|   -7.813077|   -8.613785|    2.414116|
|        5184|  6.7876e+00|   -7.944130|   -7.954855|   -8.255166|   -8.221272|   -7.813311|   -8.614089|    2.414116|
|        5185|  6.7875e+00|   -7.944454|   -7.954882|   -8.256275|   -8.221778|   -7.813549|   -8.614394|    2.414116|
|        5186|  6.7875e+00|   -7.944797|   -7.954906|   -8.257394|   -8.222289|   -7.813792|   -8.614700|    2.414116|
|        5187|  6.7874e+00|   -7.945157|   -7.954926|   -8.258522|   -8.222803|   -7.814041|   -8.615006|    2.414117|
|        5188|  6.7874e+00|   -7.945536|   -7.954945|   -8.259656|   -8.223321|   -7.814294|   -8.615313|    2.414117|
|        5189|  6.7873e+00|   -7.945932|   -7.954963|   -8.260793|   -8.223843|   -7.814554|   -8.615620|    2.414117|
|        5190|  6.7873e+00|   -7.946346|   -7.954982|   -8.261932|   -8.224368|   -7.814819|   -8.615928|    2.414117|
|        5191|  6.7873e+00|   -7.946777|   -7.955004|   -8.263071|   -8.224896|   -7.815090|   -8.616237|    2.414117|
|        5192|  6.7872e+00|   -7.947224|   -7.955030|   -8.264207|   -8.225426|   -7.815367|   -8.616546|    2.414117|
|        5193|  6.7872e+00|   -7.947688|   -7.955060|   -8.265337|   -8.225958|   -7.815651|   -8.616855|    2.414117|
|        5194|  6.7871e+00|   -7.948168|   -7.955097|   -8.266461|   -8.226492|   -7.815941|   -8.617165|    2.414117|
|        5195|  6.7871e+00|   -7.948663|   -7.955140|   -8.267575|   -8.227027|   -7.816238|   -8.617476|    2.414117|
|        5196|  6.7871e+00|   -7.949174|   -7.955193|   -8.268677|   -8.227563|   -7.816543|   -8.617787|    2.414117|
|        5197|  6.7870e+00|   -7.949699|   -7.955256|   -8.269765|   -8.228100|   -7.816854|   -8.618099|    2.414117|
|        5198|  6.7870e+00|   -7.950238|   -7.955330|   -8.270837|   -8.228638|   -7.817173|   -8.618411|    2.414117|
|        5199|  6.7870e+00|   -7.950792|   -7.955418|   -8.271890|   -8.229175|   -7.817499|   -8.618724|    2.414116|
|        5200|  6.7870e+00|   -7.951358|   -7.955519|   -8.272924|   -8.229712|   -7.817834|   -8.619037|    2.414116|
|        5201|  6.7869e+00|   -7.951938|   -7.955636|   -8.273934|   -8.230249|   -7.818177|   -8.619351|    2.414116|
|        5202|  6.7870e+00|   -7.952530|   -7.955769|   -8.274921|   -8.230786|   -7.818529|   -8.619666|    2.414116|
|        5203|  6.7869e+00|   -7.953134|   -7.955920|   -8.275882|   -8.231321|   -7.818889|   -8.619981|    2.414116|
|        5204|  6.7869e+00|   -7.953750|   -7.956091|   -8.276814|   -8.231856|   -7.819259|   -8.620296|    2.414116|
|        5205|  6.7869e+00|   -7.954378|   -7.956283|   -8.277718|   -8.232389|   -7.819638|   -8.620612|    2.414116|
|        5206|  6.7869e+00|   -7.955016|   -7.956497|   -8.278590|   -8.232921|   -7.820028|   -8.620928|    2.414116|
|        5207|  6.7868e+00|   -7.955665|   -7.956734|   -8.279431|   -8.233452|   -7.820429|   -8.621245|    2.414115|
|        5208|  6.7868e+00|   -7.956324|   -7.956996|   -8.280238|   -8.233980|   -7.820840|   -8.621563|    2.414115|
|        5209|  6.7867e+00|   -7.956993|   -7.957282|   -8.281010|   -8.234507|   -7.821262|   -8.621880|    2.414115|
|        5210|  6.7867e+00|   -7.957672|   -7.957594|   -8.281747|   -8.235032|   -7.821695|   -8.622199|    2.414115|
|        5211|  6.7866e+00|   -7.958359|   -7.957933|   -8.282448|   -8.235554|   -7.822140|   -8.622517|    2.414115|
|        5212|  6.7866e+00|   -7.959055|   -7.958299|   -8.283111|   -8.236075|   -7.822597|   -8.622837|    2.414114|
|        5213|  6.7866e+00|   -7.959759|   -7.958694|   -8.283737|   -8.236594|   -7.823066|   -8.623156|    2.414114|
|        5214|  6.7865e+00|   -7.960471|   -7.959119|   -8.284324|   -8.237110|   -7.823547|   -8.623476|    2.414114|
|        5215|  6.7865e+00|   -7.961192|   -7.959574|   -8.284873|   -8.237625|   -7.824043|   -8.623797|    2.414114|
|        5216|  6.7864e+00|   -7.961921|   -7.960061|   -8.285383|   -8.238137|   -7.824552|   -8.624118|    2.414113|
|        5217|  6.7864e+00|   -7.962657|   -7.960580|   -8.285855|   -8.238648|   -7.825074|   -8.624439|    2.414113|
|        5218|  6.7863e+00|   -7.963400|   -7.961132|   -8.286288|   -8.239156|   -7.825612|   -8.624761|    2.414113|
|        5219|  6.7863e+00|   -7.964152|   -7.961717|   -8.286684|   -8.239663|   -7.826165|   -8.625083|    2.414112|
|        5220|  6.7863e+00|   -7.964911|   -7.962337|   -8.287042|   -8.240169|   -7.826733|   -8.625405|    2.414112|
|        5221|  6.7862e+00|   -7.965678|   -7.962991|   -8.287363|   -8.240673|   -7.827318|   -8.625728|    2.414112|
|        5222|  6.7862e+00|   -7.966453|   -7.963680|   -8.287648|   -8.241176|   -7.827920|   -8.626051|    2.414111|
|        5223|  6.7862e+00|   -7.967235|   -7.964404|   -8.287897|   -8.241677|   -7.828538|   -8.626374|    2.414111|
|        5224|  6.7861e+00|   -7.968024|   -7.965163|   -8.288112|   -8.242178|   -7.829172|   -8.626698|    2.414110|
|        5225|  6.7861e+00|   -7.968821|   -7.965957|   -8.288294|   -8.242679|   -7.829824|   -8.627022|    2.414110|
|        5226|  6.7861e+00|   -7.969625|   -7.966785|   -8.288444|   -8.243179|   -7.830493|   -8.627347|    2.414110|
|        5227|  6.7860e+00|   -7.970436|   -7.967648|   -8.288564|   -8.243679|   -7.831180|   -8.627671|    2.414109|
|        5228|  6.7860e+00|   -7.971254|   -7.968545|   -8.288654|   -8.244179|   -7.831883|   -8.627996|    2.414109|
|        5229|  6.7859e+00|   -7.972079|   -7.969476|   -8.288717|   -8.244679|   -7.832605|   -8.628321|    2.414108|
|        5230|  6.7859e+00|   -7.972913|   -7.970440|   -8.288754|   -8.245179|   -7.833345|   -8.628647|    2.414108|
|        5231|  6.7859e+00|   -7.973754|   -7.971438|   -8.288768|   -8.245681|   -7.834105|   -8.628973|    2.414107|
|        5232|  6.7858e+00|   -7.974603|   -7.972471|   -8.288759|   -8.246184|   -7.834883|   -8.629299|    2.414107|
|        5233|  6.7858e+00|   -7.975461|   -7.973535|   -8.288731|   -8.246689|   -7.835681|   -8.629625|    2.414106|
|        5234|  6.7858e+00|   -7.976327|   -7.974630|   -8.288685|   -8.247195|   -7.836498|   -8.629951|    2.414106|
|        5235|  6.7857e+00|   -7.977201|   -7.975756|   -8.288623|   -8.247704|   -7.837333|   -8.630278|    2.414105|
|        5236|  6.7857e+00|   -7.978083|   -7.976911|   -8.288548|   -8.248215|   -7.838188|   -8.630605|    2.414104|
|        5237|  6.7856e+00|   -7.978974|   -7.978095|   -8.288460|   -8.248729|   -7.839062|   -8.630931|    2.414104|
|        5238|  6.7856e+00|   -7.979874|   -7.979306|   -8.288364|   -8.249245|   -7.839955|   -8.631259|    2.414103|
|        5239|  6.7855e+00|   -7.980783|   -7.980543|   -8.288261|   -8.249766|   -7.840867|   -8.631586|    2.414103|
|        5240|  6.7855e+00|   -7.981702|   -7.981805|   -8.288153|   -8.250289|   -7.841799|   -8.631913|    2.414102|
|        5241|  6.7854e+00|   -7.982630|   -7.983091|   -8.288043|   -8.250817|   -7.842750|   -8.632241|    2.414101|
|        5242|  6.7855e+00|   -7.983569|   -7.984399|   -8.287933|   -8.251349|   -7.843720|   -8.632569|    2.414101|
|        5243|  6.7855e+00|   -7.984518|   -7.985730|   -8.287826|   -8.251886|   -7.844711|   -8.632896|    2.414100|
|        5244|  6.7856e+00|   -7.985479|   -7.987081|   -8.287724|   -8.252427|   -7.845721|   -8.633224|    2.414099|
|        5245|  6.7856e+00|   -7.986451|   -7.988451|   -8.287629|   -8.252974|   -7.846751|   -8.633552|    2.414098|
|        5246|  6.7856e+00|   -7.987434|   -7.989837|   -8.287543|   -8.253525|   -7.847799|   -8.633880|    2.414098|
|        5247|  6.7857e+00|   -7.988429|   -7.991237|   -8.287469|   -8.254082|   -7.848866|   -8.634209|    2.414097|
|        5248|  6.7857e+00|   -7.989435|   -7.992650|   -8.287408|   -8.254644|   -7.849951|   -8.634537|    2.414096|
|        5249|  6.7857e+00|   -7.990453|   -7.994075|   -8.287363|   -8.255212|   -7.851054|   -8.634865|    2.414096|
|        5250|  6.7858e+00|   -7.991483|   -7.995508|   -8.287336|   -8.255785|   -7.852174|   -8.635193|    2.414095|
+-----------------------------------------------------------------------+
|        File Writing Summary       |              Filename             |
+-----------------------------------------------------------------------+
|SU2 binary restart                 |restart_flow.dat                   |
|Paraview                           |flow.vtu                           |
|Paraview surface                   |surface_flow.vtu                   |
+-----------------------------------------------------------------------+
+--------------------------------------------------------------------------------------------------------------------+
|  Inner_Iter|   Time(sec)|    rms[Rho]|   rms[RhoU]|   rms[RhoV]|   rms[RhoW]|   rms[RhoE]|     rms[nu]|          CD|
+--------------------------------------------------------------------------------------------------------------------+
|        5251|  6.7901e+00|   -7.992524|   -7.996947|   -8.287328|   -8.256364|   -7.853310|   -8.635522|    2.414094|
|        5252|  6.7902e+00|   -7.993577|   -7.998390|   -8.287342|   -8.256948|   -7.854461|   -8.635850|    2.414093|
|        5253|  6.7902e+00|   -7.994640|   -7.999834|   -8.287379|   -8.257537|   -7.855627|   -8.636178|    2.414092|
|        5254|  6.7903e+00|   -7.995716|   -8.001277|   -8.287441|   -8.258132|   -7.856807|   -8.636506|    2.414092|
|        5255|  6.7903e+00|   -7.996802|   -8.002718|   -8.287529|   -8.258732|   -7.858001|   -8.636834|    2.414091|
|        5256|  6.7904e+00|   -7.997900|   -8.004154|   -8.287646|   -8.259337|   -7.859207|   -8.637163|    2.414090|
|        5257|  6.7904e+00|   -7.999009|   -8.005583|   -8.287791|   -8.259947|   -7.860425|   -8.637491|    2.414089|
|        5258|  6.7904e+00|   -8.000128|   -8.007000|   -8.287968|   -8.260561|   -7.861653|   -8.637819|    2.414088|

----------------------------- Solver Exit -------------------------------
All convergence criteria satisfied.
+-----------------------------------------------------------------------+
|      Convergence Field     |     Value    |   Criterion  |  Converged |
+-----------------------------------------------------------------------+
|                    rms[Rho]|      -8.00013|          < -8|         Yes|
+-----------------------------------------------------------------------+
-------------------------------------------------------------------------
+-----------------------------------------------------------------------+
|        File Writing Summary       |              Filename             |
+-----------------------------------------------------------------------+
|SU2 binary restart                 |restart_flow.dat                   |
|Paraview                           |flow.vtu                           |
|Paraview surface                   |surface_flow.vtu                   |
+-----------------------------------------------------------------------+

------------------------- Solver Postprocessing -------------------------
Deleted CNumerics container.
Deleted CIntegration container.
Deleted CSolver container.
Deleted CIteration container.
Deleted CInterface container.
Deleted CGeometry container.
Deleted CFreeFormDefBox class.
Deleted CSurfaceMovement class.
Deleted CVolumetricMovement class.
Deleted CConfig container.
Deleted nInst container.
Deleted COutput class.
-------------------------------------------------------------------------

------------------------- Exit Success (SU2_CFD) ------------------------


scontrol show job 1228484
JobId=1228484 JobName=m1.5_aoa24
   UserId=anthonyy(3152141) GroupId=anthonyy(3152141) MCS_label=N/A
   Priority=659243 Nice=0 Account=rrg-jphickey QOS=normal
   JobState=COMPLETING Reason=None Dependency=(null)
   Requeue=0 Restarts=0 BatchFlag=1 Reboot=0 ExitCode=0:0
   RunTime=10:04:57 TimeLimit=18:00:00 TimeMin=N/A
   SubmitTime=2026-03-25T02:35:45 EligibleTime=2026-03-25T02:35:45
   AccrueTime=2026-03-25T02:35:45
   StartTime=2026-03-25T16:57:24 EndTime=2026-03-26T03:02:21 Deadline=N/A
   SuspendTime=None SecsPreSuspend=0 LastSchedEval=2026-03-25T16:57:24 Scheduler=Backfill
   Partition=compute AllocNode:Sid=tri-login01:1156378
   ReqNodeList=(null) ExcNodeList=(null)
   NodeList=tri[0839-0840]
   BatchHost=tri0839
   NumNodes=2 NumCPUs=384 NumTasks=128 CPUs/Task=1 ReqB:S:C:T=0:0:*:*
   ReqTRES=cpu=384,mem=1534000M,node=2,billing=384
   AllocTRES=cpu=384,mem=1534000M,node=2,billing=384
   Socks/Node=* NtasksPerN:B:S:C=64:0:*:* CoreSpec=*
   MinCPUsNode=64 MinMemoryNode=0 MinTmpDiskNode=0
   Features=(null) DelayBoot=00:00:00
   OverSubscribe=NO Contiguous=0 Licenses=(null) LicensesAlloc=(null) Network=(null)
   Command=/scratch/anthonyy/reentry/orion/config/run.sh
   SubmitLine=SBATCH --comment /opt/slurm/bin/sbatch --export=NONE --get-user-env --job-name m1.5_aoa24 --nodes 2 --ntasks-per-node 64 --cpus-per-task 1 --mem 0 --time 18:00:00 --account rrg-jphickey --output orion_%j.out --error orion_%j.err --chdir /scratch/anthonyy/reentry/orion/cases/m1.5_aoa24 /scratch/anthonyy/reentry/orion/config/run.sh /scratch/anthonyy/reentry/orion/config/generated/m1.5_aoa24.cfg --export=NONE --get-user-env --job-name m1.5_aoa24 --nodes 2 --ntasks-per-node 64 --cpus-per-task 1 --mem 0 --time 18:00:00 --account rrg-jphickey --output orion_%j.out --error orion_%j.err --chdir /scratch/anthonyy/reentry/orion/cases/m1.5_aoa24 /scratch/anthonyy/reentry/orion/config/run.sh /scratch/anthonyy/reentry/orion/config/generated/m1.5_aoa24.cfg
   WorkDir=/scratch/anthonyy/reentry/orion/cases/m1.5_aoa24
   Comment=/opt/slurm/bin/sbatch --export=NONE --get-user-env --job-name m1.5_aoa24 --nodes 2 --ntasks-per-node 64 --cpus-per-task 1 --mem 0 --time 18:00:00 --account rrg-jphickey --output orion_%j.out --error orion_%j.err --chdir /scratch/anthonyy/reentry/orion/cases/m1.5_aoa24 /scratch/anthonyy/reentry/orion/config/run.sh /scratch/anthonyy/reentry/orion/config/generated/m1.5_aoa24.cfg
   StdErr=/scratch/anthonyy/reentry/orion/cases/m1.5_aoa24/orion_1228484.err
   StdIn=/dev/null
   StdOut=/scratch/anthonyy/reentry/orion/cases/m1.5_aoa24/orion_1228484.out
   TresPerTask=cpu=1

sacct -j 1228484
JobID           JobName    Account    Elapsed  MaxVMSize     MaxRSS  SystemCPU    UserCPU ExitCode 
------------ ---------- ---------- ---------- ---------- ---------- ---------- ---------- -------- 
1228484      m1.5_aoa24 rrg-jphic+   10:04:57                         00:00:00   00:00:00      0:0 
1228484.bat+      batch rrg-jphic+   10:04:57                         00:00:00   00:00:00      0:0 
1228484.ext+     extern rrg-jphic+   10:04:57                         00:00:00   00:00:00      0:0 
1228484.0       SU2_CFD rrg-jphic+   10:04:18                         00:00:00   00:00:00      0:0 

