Nodes:  tri[1214-1215]
Tasks:  128
NPN:    64
Config: /scratch/anthonyy/reentry/orion/config/generated/m1.5_aoa40.cfg

-------------------------------------------------------------------------
|    ___ _   _ ___                                                      |
|   / __| | | |_  )   Release 7.5.1 "Blackbird"                         |
|   \__ \ |_| |/ /                                                      |
|   |___/\___//___|   Suite (Computational Fluid Dynamics Code)         |
|                                                                       |
-------------------------------------------------------------------------
| SU2 Project Website: https://su2code.github.io                        |
|                                                                       |
| The SU2 Project is maintained by the SU2 Foundation                   |
| (http://su2foundation.org)                                            |
-------------------------------------------------------------------------
| Copyright 2012-2023, SU2 Contributors                                 |
|                                                                       |
| SU2 is free software; you can redistribute it and/or                  |
| modify it under the terms of the GNU Lesser General Public            |
| License as published by the Free Software Foundation; either          |
| version 2.1 of the License, or (at your option) any later version.    |
|                                                                       |
| SU2 is distributed in the hope that it will be useful,                |
| but WITHOUT ANY WARRANTY; without even the implied warranty of        |
| MERCHANTABILITY or FITNESS FOR A PARTICULAR PURPOSE. See the GNU      |
| Lesser General Public License for more details.                       |
|                                                                       |
| You should have received a copy of the GNU Lesser General Public      |
| License along with SU2. If not, see <http://www.gnu.org/licenses/>.   |
-------------------------------------------------------------------------

Parsing config file for zone 0

----------------- Physical Case Definition ( Zone 0 ) -------------------
Compressible RANS equations.
Turbulence model: Spalart-Allmaras-noft2
Hybrid RANS/LES: No Hybrid RANS/LES
Mach number: 1.5.
Angle of attack (AoA): 40 deg, and angle of sideslip (AoS): 0 deg.
Reynolds number: 1.71557e+08. Reference length 5.
No restart solution, use the values at infinity (freestream).
Non-Dimensional simulation (V=1.0, Rho=1.0, T=1.0 at the farfield).
The reference area will be computed using y(2D) or z(3D) projection.
The semi-span will be computed using the max y(3D) value.
The reference length is 0.64607 m.
Reference origin for moment evaluation is (0.25, 0, 0).
Surface(s) where the force coefficients are evaluated: ORION_SURFACE.

Input mesh file name: ../../mesh/fine.su2

--------------- Space Numerical Integration ( Zone 0 ) ------------------
Jameson-Schmidt-Turkel scheme (2nd order in space) for the flow inviscid terms.
JST viscous coefficients (2nd & 4th): 0.5, 0.02.
The method includes a grid stretching correction (p = 0.3).
Scalar upwind solver for the turbulence model.
First order integration in space.
Average of gradients with correction (viscous flow terms).
Average of gradients with correction (viscous turbulence terms).
Gradient for upwind reconstruction: Green-Gauss.
Gradient for viscous and source terms: Green-Gauss.

--------------- Time Numerical Integration  ( Zone 0 ) ------------------
Local time stepping (steady state simulation).
Euler implicit method for the flow equations.
FGMRES is used for solving the linear system.
Using a ILU(0) preconditioning.
Convergence criteria of the linear solver: 1e-06.
Max number of linear iterations: 100.
CFL adaptation. Factor down: 0.5, factor up: 1.2,
                lower limit: 0.1, upper limit: 3,
                acceptable linear residual: 0.001.
Courant-Friedrichs-Lewy number:        1
Euler implicit time integration for the turbulence model.

------------------ Convergence Criteria  ( Zone 0 ) ---------------------
Maximum number of solver subiterations: 999999.
Begin convergence monitoring at iteration 5.
Residual minimum value: 1e-8.
Cauchy series min. value: 1e-10.
Number of Cauchy elements: 100.
Begin windowed time average at iteration 0.

-------------------- Output Information ( Zone 0 ) ----------------------
File writing frequency: 
+------------------------------------+
|                     File| Frequency|
+------------------------------------+
|                  RESTART|       150|
|                 PARAVIEW|       150|
|         SURFACE_PARAVIEW|       150|
+------------------------------------+
Writing the convergence history file every 1 inner iterations.
Writing the screen convergence history every 1 inner iterations.
The tabular file format is CSV (.csv).
Convergence history file name: history.
Forces breakdown file name: forces_breakdown.dat.
Surface file name: surface_flow.
Volume file name: flow.
Restart file name: restart_flow.

------------- Config File Boundary Information ( Zone 0 ) ---------------
+-----------------------------------------------------------------------+
|                        Marker Type|                        Marker Name|
+-----------------------------------------------------------------------+
|                          Far-field|                           FARFIELD|
+-----------------------------------------------------------------------+
|                     Heat flux wall|                      ORION_SURFACE|
+-----------------------------------------------------------------------+

-------------------- Output Preprocessing ( Zone 0 ) --------------------

WARNING: SURFACE_PRESSURE_DROP can only be computed for at least 2 surfaces (outlet, inlet, ...)

Screen output fields: INNER_ITER, WALL_TIME, RMS_DENSITY, RMS_MOMENTUM-X, RMS_MOMENTUM-Y, RMS_MOMENTUM-Z, RMS_ENERGY, RMS_NU_TILDE, DRAG
History output group(s): ITER, RMS_RES
Convergence field(s): RMS_DENSITY
Warning: No (valid) fields chosen for time convergence monitoring. Time convergence monitoring inactive.
Volume output fields: MACH, PRESSURE, TEMPERATURE, DENSITY, HEAT_FLUX, Y_PLUS, COORDINATES, SOLUTION

------------------- Geometry Preprocessing ( Zone 0 ) -------------------
Three dimensional problem.
62211324 grid points before partitioning.
190879888 volume elements before partitioning.
2 surface markers.
4104 boundary elements in index 0 (Marker = FARFIELD).
1824836 boundary elements in index 1 (Marker = ORION_SURFACE).
Executing the partitioning functions.
Building the graph adjacency structure.
Calling ParMETIS... graph partitioning complete (4959327 edge cuts).
Distributing ParMETIS coloring.
Rebalancing vertices.
Rebalancing volume element connectivity.
Rebalancing markers and surface elements.
66952290 vertices including ghost points. 
197997438 interior elements including halo cells. 
103171259 tetrahedra.
94500655 prisms.
325524 pyramids.
Establishing MPI communication patterns.
Setting point connectivity.
Renumbering points (Reverse Cuthill McKee Ordering).
Recomputing point connectivity.
Setting element connectivity.
Checking the numerical grid orientation.
All volume elements are correctly orientend.
All surface elements are correctly orientend.
Identifying edges and vertices.
Setting the control volume structure.
Volume of the computational grid: 535693.
Searching for the closest normal neighbors to the surfaces.
Storing a mapping from global to local point index.
Compute the surface curvature.
Max K: 132.896. Mean K: 3.9104. Standard deviation K: 7.49569.
Checking for periodicity.
Computing mesh quality statistics for the dual control volumes.
+--------------------------------------------------------------+
|           Mesh Quality Metric|        Minimum|        Maximum|
+--------------------------------------------------------------+
|    Orthogonality Angle (deg.)|        53.0661|             90|
|     CV Face Area Aspect Ratio|        1.01143|        75298.5|
|           CV Sub-Volume Ratio|        1.00029|        45.0258|
+--------------------------------------------------------------+
Finding max control volume width.
Communicating number of neighbors.
Reference area = 11.531 m^2.
Semi-span length = 2.49999 m.
Wetted area = 57.9072 m^2.
Area projection in the x-plane = 19.6343 m^2, y-plane = 11.531 m^2, z-plane = 11.531 m^2.
Max. coordinate in the x-direction = 2.575 m, y-direction = 2.49999 m, z-direction = 2.49999 m.
Min. coordinate in the x-direction = -0.71 m, y-direction = -2.49999 m, z-direction = -2.5 m.
Computing wall distances.

-------------------- Solver Preprocessing ( Zone 0 ) --------------------
Viscous flow: Computing pressure using the ideal gas law
based on the free-stream temperature and a density computed
from the Reynolds number.
Force coefficients computed using free-stream values.

-- Models:
+------------------------------------------------------------------------------+
|          Viscosity Model|        Conductivity Model|              Fluid Model|
+------------------------------------------------------------------------------+
|               SUTHERLAND|          CONSTANT_PRANDTL|             STANDARD_AIR|
+------------------------------------------------------------------------------+
-- Fluid properties:
+------------------------------------------------------------------------------+
|                  Name|    Dim. value|    Ref. value|      Unit|Non-dim. value|
+------------------------------------------------------------------------------+
|        Ref. Viscosity|     1.716e-05|       613.934|   N.s/m^2|   2.79509e-08|
|      Sutherland Temp.|        273.15|        288.15|         K|      0.947944|
|     Sutherland Const.|         110.4|        288.15|         K|      0.383134|
+------------------------------------------------------------------------------+
|        Prandtl (Lam.)|             -|             -|         -|          0.72|
|       Prandtl (Turb.)|             -|             -|         -|           0.9|
+------------------------------------------------------------------------------+
|          Gas Constant|       287.058|       904.233|  N.m/kg.K|       0.31746|
|      Spec. Heat Ratio|             -|             -|         -|           1.4|
+------------------------------------------------------------------------------+
-- Initial and free-stream conditions:
+------------------------------------------------------------------------------+
|                  Name|    Dim. value|    Ref. value|      Unit|Non-dim. value|
+------------------------------------------------------------------------------+
|       Static Pressure|       99485.6|        313380|        Pa|       0.31746|
|               Density|       1.20274|       1.20274|    kg/m^3|             1|
|           Temperature|        288.15|        288.15|         K|             1|
|          Total Energy|        337067|        260555|   m^2/s^2|       1.29365|
|            Velocity-X|       391.024|       510.446|       m/s|      0.766044|
|            Velocity-Y|             0|       510.446|       m/s|             0|
|            Velocity-Z|       328.108|       510.446|       m/s|      0.642788|
|    Velocity Magnitude|       510.446|       510.446|       m/s|             1|
+------------------------------------------------------------------------------+
|             Viscosity|    1.7893e-05|       613.934|   N.s/m^2|   2.91448e-08|
|          Conductivity|             -|        555139|   W/m^2.K|             -|
|     Turb. Kin. Energy|        977.08|        260555|   m^2/s^2|       0.00375|
|     Spec. Dissipation|   6.56779e+06|       510.446|       1/s|       12866.8|
+------------------------------------------------------------------------------+
|           Mach Number|             -|             -|         -|           1.5|
|       Reynolds Number|             -|             -|         -|   1.71557e+08|
+------------------------------------------------------------------------------+
Initialize Jacobian structure (Navier-Stokes). MG level: 0.
Initialize Jacobian structure (SA model).

------------------- Numerics Preprocessing ( Zone 0 ) -------------------

----------------- Integration Preprocessing ( Zone 0 ) ------------------

------------------- Iteration Preprocessing ( Zone 0 ) ------------------
Euler/Navier-Stokes/RANS fluid iteration.

------------------------------ Begin Solver -----------------------------

Simulation Run using the Single-zone Driver
WARNING: SU2 was not compiled for an AVX-capable architecture. Performance could be better,
         see https://su2code.github.io/docs_v7/Build-SU2-Linux-MacOS/#compiler-optimizations
+--------------------------------------------------------------------------------------------------------------------+
|  Inner_Iter|   Time(sec)|    rms[Rho]|   rms[RhoU]|   rms[RhoV]|   rms[RhoW]|   rms[RhoE]|     rms[nu]|          CD|
+--------------------------------------------------------------------------------------------------------------------+
|           0|  6.3304e+00|   -5.302696|  -15.981631|  -16.490591|  -16.051591|   -5.095570|  -12.305607|    1.035926|
|           1|  6.2687e+00|   -5.454390|   -5.612207|   -6.472235|   -5.631562|   -5.252035|  -12.306643|    1.525906|
|           2|  6.2340e+00|   -5.474636|   -5.676643|   -6.460448|   -5.665241|   -5.266187|  -12.552485|    2.017282|
|           3|  6.2960e+00|   -5.492888|   -5.743736|   -6.396139|   -5.700612|   -5.277392|  -12.707239|    2.521909|
|           4|  6.4056e+00|   -5.515717|   -5.799551|   -6.314744|   -5.740702|   -5.293965|  -12.800654|    3.021275|
|           5|  6.4694e+00|   -5.549023|   -5.815599|   -6.239635|   -5.785741|   -5.323590|  -12.855737|    3.466217|
|           6|  6.5853e+00|   -5.591193|   -5.783906|   -6.184283|   -5.827496|   -5.365810|  -12.880862|    3.763705|
|           7|  6.7362e+00|   -5.619216|   -5.743364|   -6.151174|   -5.841336|   -5.392643|  -12.897602|    3.820745|
|           8|  6.8441e+00|   -5.604875|   -5.728764|   -6.131624|   -5.815209|   -5.367237|  -12.896310|    3.626738|
|           9|  6.9361e+00|   -5.570780|   -5.743061|   -6.109888|   -5.784420|   -5.318339|  -12.884711|    3.278532|
|          10|  7.0074e+00|   -5.550474|   -5.767664|   -6.088248|   -5.776619|   -5.289174|  -12.869903|    2.941967|
|          11|  7.0810e+00|   -5.555157|   -5.775089|   -6.076021|   -5.790003|   -5.292832|  -12.846000|    2.746216|
|          12|  7.1377e+00|   -5.574977|   -5.765100|   -6.077247|   -5.809605|   -5.317527|  -12.825461|    2.709375|
|          13|  7.1901e+00|   -5.592306|   -5.757777|   -6.087080|   -5.822473|   -5.340848|  -12.813627|    2.783000|
|          14|  7.2306e+00|   -5.598693|   -5.769620|   -6.099463|   -5.827112|   -5.348640|  -12.802858|    2.902729|
|          15|  7.2690e+00|   -5.599061|   -5.793014|   -6.108375|   -5.830464|   -5.347563|  -12.790213|    3.017593|
|          16|  7.3007e+00|   -5.601746|   -5.805640|   -6.112037|   -5.835393|   -5.350485|  -12.776458|    3.101510|
|          17|  7.3287e+00|   -5.606314|   -5.801724|   -6.112595|   -5.838590|   -5.357007|  -12.765098|    3.151300|
|          18|  7.3532e+00|   -5.609309|   -5.799142|   -6.113622|   -5.838952|   -5.361031|  -12.757727|    3.177618|
|          19|  7.3792e+00|   -5.609262|   -5.806831|   -6.115371|   -5.838773|   -5.360469|  -12.749907|    3.194044|
|          20|  7.4008e+00|   -5.608797|   -5.815279|   -6.115705|   -5.840196|   -5.359587|  -12.742859|    3.209120|
|          21|  7.4211e+00|   -5.609136|   -5.813047|   -6.114261|   -5.842223|   -5.360389|  -12.734406|    3.224676|
|          22|  7.4407e+00|   -5.609667|   -5.806229|   -6.112586|   -5.842453|   -5.361402|  -12.727863|    3.238700|
|          23|  7.4571e+00|   -5.608333|   -5.804642|   -6.111676|   -5.841331|   -5.359449|  -12.722601|    3.248926|
|          24|  7.4714e+00|   -5.606532|   -5.808959|   -6.110901|   -5.840524|   -5.356718|  -12.717402|    3.254848|
|          25|  7.4853e+00|   -5.605156|   -5.810218|   -6.109323|   -5.840841|   -5.354869|  -12.712632|    3.257767|
|          26|  7.4968e+00|   -5.604738|   -5.805441|   -6.107367|   -5.841002|   -5.354709|  -12.706733|    3.259666|
|          27|  7.5087e+00|   -5.604036|   -5.800138|   -6.105533|   -5.840008|   -5.353985|  -12.702474|    3.262019|
|          28|  7.5167e+00|   -5.602269|   -5.799476|   -6.104412|   -5.838512|   -5.351575|  -12.698486|    3.265272|
|          29|  7.5272e+00|   -5.600588|   -5.801599|   -6.103264|   -5.837543|   -5.349208|  -12.695323|    3.269060|
|          30|  7.5389e+00|   -5.599436|   -5.800227|   -6.101855|   -5.837122|   -5.347835|  -12.692121|    3.272744|
|          31|  7.5483e+00|   -5.598895|   -5.795239|   -6.100303|   -5.836327|   -5.347486|  -12.688507|    3.275882|
|          32|  7.5524e+00|   -5.597886|   -5.791243|   -6.099000|   -5.834545|   -5.346341|  -12.684973|    3.278395|
|          33|  7.5600e+00|   -5.595965|   -5.790366|   -6.097893|   -5.832089|   -5.343843|  -12.682410|    3.280492|
|          34|  7.5695e+00|   -5.594368|   -5.789884|   -6.096768|   -5.829690|   -5.341750|  -12.679335|    3.282454|
|          35|  7.5758e+00|   -5.592860|   -5.785317|   -6.095122|   -5.826664|   -5.339974|  -12.676990|    3.284468|
|          36|  7.5845e+00|   -5.591337|   -5.778125|   -6.093325|   -5.822152|   -5.338264|  -12.672170|    3.286559|
|          37|  7.5933e+00|   -5.588539|   -5.770824|   -6.091145|   -5.815120|   -5.334669|  -12.668060|    3.288636|
|          38|  7.6004e+00|   -5.584734|   -5.763412|   -6.088610|   -5.805604|   -5.329660|  -12.662075|    3.290583|
|          39|  7.6069e+00|   -5.580063|   -5.752279|   -6.084900|   -5.793192|   -5.323500|  -12.655752|    3.292329|
|          40|  7.6132e+00|   -5.574342|   -5.735600|   -6.080010|   -5.777214|   -5.316135|  -12.647081|    3.293873|
|          41|  7.6166e+00|   -5.566712|   -5.714805|   -6.073456|   -5.756855|   -5.306400|  -12.635627|    3.295265|
|          42|  7.6202e+00|   -5.556537|   -5.691250|   -6.065190|   -5.732203|   -5.293503|  -12.622444|    3.296562|
|          43|  7.6351e+00|   -5.544086|   -5.664645|   -6.054676|   -5.703947|   -5.278072|  -12.606752|    3.297798|
|          44|  7.6493e+00|   -5.529442|   -5.634153|   -6.041630|   -5.672964|   -5.260453|  -12.589186|    3.298979|
|          45|  7.6537e+00|   -5.512612|   -5.600837|   -6.026174|   -5.640089|   -5.240890|  -12.569738|    3.300088|
|          46|  7.6573e+00|   -5.493700|   -5.566673|   -6.008440|   -5.606257|   -5.219568|  -12.548241|    3.301108|
|          47|  7.6614e+00|   -5.472997|   -5.532768|   -5.988864|   -5.572450|   -5.196889|  -12.526474|    3.302032|
|          48|  7.6650e+00|   -5.451359|   -5.499547|   -5.967636|   -5.539527|   -5.173986|  -12.504268|    3.302865|
|          49|  7.6704e+00|   -5.429379|   -5.467309|   -5.945498|   -5.508189|   -5.151472|  -12.482345|    3.303622|
|          50|  7.6740e+00|   -5.407381|   -5.436692|   -5.922858|   -5.478807|   -5.129665|  -12.461276|    3.304316|
|          51|  7.6765e+00|   -5.385953|   -5.408464|   -5.900430|   -5.451730|   -5.109054|  -12.440708|    3.304957|
|          52|  7.6793e+00|   -5.365263|   -5.382666|   -5.878399|   -5.427068|   -5.089695|  -12.422084|    3.305545|
|          53|  7.6810e+00|   -5.345985|   -5.359378|   -5.857284|   -5.404977|   -5.072272|  -12.404607|    3.306079|
|          54|  7.6847e+00|   -5.328112|   -5.338418|   -5.837230|   -5.385419|   -5.056628|  -12.389036|    3.306558|
|          55|  7.6872e+00|   -5.311847|   -5.319920|   -5.818545|   -5.368359|   -5.042899|  -12.374994|    3.306983|
|          56|  7.6873e+00|   -5.297183|   -5.303878|   -5.801215|   -5.353668|   -5.030939|  -12.362578|    3.307356|
|          57|  7.6901e+00|   -5.284178|   -5.290149|   -5.785350|   -5.341220|   -5.020739|  -12.351978|    3.307681|
|          58|  7.6918e+00|   -5.272869|   -5.278516|   -5.770875|   -5.330849|   -5.012308|  -12.342894|    3.307962|
|          59|  7.6933e+00|   -5.263169|   -5.268791|   -5.757850|   -5.322408|   -5.005472|  -12.335292|    3.308201|
|          60|  7.6959e+00|   -5.254928|   -5.260844|   -5.746112|   -5.315701|   -5.000029|  -12.329119|    3.308400|
|          61|  7.6981e+00|   -5.248104|   -5.254596|   -5.735661|   -5.310581|   -4.995880|  -12.324025|    3.308559|
|          62|  7.6998e+00|   -5.242526|   -5.249808|   -5.726314|   -5.306838|   -4.992815|  -12.320342|    3.308679|
|          63|  7.7026e+00|   -5.238207|   -5.246325|   -5.718062|   -5.304332|   -4.990875|  -12.317428|    3.308762|
|          64|  7.7050e+00|   -5.234889|   -5.243907|   -5.710723|   -5.302886|   -4.989733|  -12.315613|    3.308808|
|          65|  7.7061e+00|   -5.232538|   -5.242510|   -5.704266|   -5.302374|   -4.989382|  -12.314381|    3.308819|
|          66|  7.7076e+00|   -5.230961|   -5.241986|   -5.698534|   -5.302652|   -4.989570|  -12.313892|    3.308798|
|          67|  7.7102e+00|   -5.230123|   -5.242217|   -5.693481|   -5.303594|   -4.990308|  -12.313961|    3.308744|
|          68|  7.7118e+00|   -5.229917|   -5.243032|   -5.688990|   -5.305082|   -4.991496|  -12.314447|    3.308659|
|          69|  7.7132e+00|   -5.230219|   -5.244309|   -5.685005|   -5.307028|   -4.993004|  -12.315345|    3.308543|
|          70|  7.7138e+00|   -5.230953|   -5.246023|   -5.681443|   -5.309341|   -4.994771|  -12.316439|    3.308398|
|          71|  7.7155e+00|   -5.232016|   -5.248094|   -5.678250|   -5.311956|   -4.996682|  -12.317786|    3.308223|
|          72|  7.7168e+00|   -5.233389|   -5.250452|   -5.675365|   -5.314788|   -4.998765|  -12.319284|    3.308019|
|          73|  7.7194e+00|   -5.234999|   -5.252975|   -5.672738|   -5.317784|   -5.000963|  -12.320867|    3.307788|
|          74|  7.7147e+00|   -5.236768|   -5.255616|   -5.670329|   -5.320897|   -5.003207|  -12.322486|    3.307529|
|          75|  7.7103e+00|   -5.238638|   -5.258384|   -5.668097|   -5.324082|   -5.005443|  -12.324041|    3.307243|
|          76|  7.7061e+00|   -5.240555|   -5.261238|   -5.666018|   -5.327314|   -5.007623|  -12.325586|    3.306931|
|          77|  7.7017e+00|   -5.242522|   -5.264141|   -5.664052|   -5.330540|   -5.009792|  -12.327052|    3.306593|
|          78|  7.6972e+00|   -5.244492|   -5.267022|   -5.662194|   -5.333743|   -5.011918|  -12.328420|    3.306229|
|          79|  7.6928e+00|   -5.246414|   -5.269875|   -5.660409|   -5.336889|   -5.013955|  -12.329652|    3.305840|
|          80|  7.6890e+00|   -5.248264|   -5.272740|   -5.658702|   -5.339967|   -5.015884|  -12.330669|    3.305427|
|          81|  7.6845e+00|   -5.249998|   -5.275585|   -5.657043|   -5.342951|   -5.017667|  -12.331600|    3.304989|
|          82|  7.6807e+00|   -5.251653|   -5.278412|   -5.655433|   -5.345818|   -5.019379|  -12.332259|    3.304526|
|          83|  7.6777e+00|   -5.253151|   -5.281153|   -5.653850|   -5.348531|   -5.020937|  -12.332804|    3.304040|
|          84|  7.6740e+00|   -5.254508|   -5.283851|   -5.652298|   -5.351080|   -5.022381|  -12.333016|    3.303531|
|          85|  7.6706e+00|   -5.255651|   -5.286514|   -5.650762|   -5.353437|   -5.023608|  -12.333006|    3.302997|
|          86|  7.6671e+00|   -5.256593|   -5.289133|   -5.649231|   -5.355589|   -5.024661|  -12.332776|    3.302440|
|          87|  7.6632e+00|   -5.257342|   -5.291709|   -5.647703|   -5.357510|   -5.025563|  -12.332158|    3.301860|
|          88|  7.6600e+00|   -5.257825|   -5.294167|   -5.646152|   -5.359160|   -5.026232|  -12.331386|    3.301255|
|          89|  7.6563e+00|   -5.258079|   -5.296565|   -5.644592|   -5.360534|   -5.026737|  -12.330117|    3.300627|
|          90|  7.6542e+00|   -5.257990|   -5.298873|   -5.642995|   -5.361587|   -5.026915|  -12.328577|    3.299973|
|          91|  7.6507e+00|   -5.257597|   -5.301098|   -5.641361|   -5.362308|   -5.026853|  -12.326664|    3.299295|
|          92|  7.6477e+00|   -5.256864|   -5.303230|   -5.639681|   -5.362653|   -5.026509|  -12.324244|    3.298590|
|          93|  7.6441e+00|   -5.255725|   -5.305192|   -5.637933|   -5.362571|   -5.025813|  -12.321529|    3.297858|
|          94|  7.6363e+00|   -5.254204|   -5.307036|   -5.636124|   -5.362043|   -5.024824|  -12.318187|    3.297098|
|          95|  7.6284e+00|   -5.252179|   -5.308729|   -5.634229|   -5.361014|   -5.023365|  -12.314427|    3.296308|
|          96|  7.6217e+00|   -5.249685|   -5.310280|   -5.632248|   -5.359460|   -5.021515|  -12.310151|    3.295486|
|          97|  7.6151e+00|   -5.246681|   -5.311687|   -5.630165|   -5.357331|   -5.019219|  -12.305229|    3.294630|
|          98|  7.6083e+00|   -5.243112|   -5.312880|   -5.627964|   -5.354575|   -5.016410|  -12.299903|    3.293739|
|          99|  7.6015e+00|   -5.239008|   -5.313906|   -5.625640|   -5.351171|   -5.013152|  -12.293886|    3.292809|
|         100|  7.5955e+00|   -5.234270|   -5.314737|   -5.623168|   -5.347079|   -5.009287|  -12.287299|    3.291839|
|         101|  7.5892e+00|   -5.228915|   -5.315363|   -5.620535|   -5.342273|   -5.004849|  -12.280214|    3.290824|
|         102|  7.5837e+00|   -5.222939|   -5.315806|   -5.617721|   -5.336735|   -4.999837|  -12.272432|    3.289763|
|         103|  7.5530e+00|   -5.216293|   -5.315979|   -5.614705|   -5.330438|   -4.994160|  -12.277982|    3.289735|
|         104|  7.5225e+00|   -5.215744|   -5.315873|   -5.614481|   -5.330076|   -4.993630|  -12.277186|    3.289701|
|         105|  7.4932e+00|   -5.215097|   -5.315742|   -5.614214|   -5.329645|   -4.993006|  -12.276243|    3.289659|
|         106|  7.4679e+00|   -5.214334|   -5.315581|   -5.613895|   -5.329131|   -4.992276|  -12.275130|    3.289609|
|         107|  7.4431e+00|   -5.213439|   -5.315379|   -5.613513|   -5.328521|   -4.991428|  -12.273822|    3.289548|
|         108|  7.4187e+00|   -5.212397|   -5.315127|   -5.613058|   -5.327797|   -4.990450|  -12.272291|    3.289474|
|         109|  7.3947e+00|   -5.211190|   -5.314807|   -5.612515|   -5.326939|   -4.989333|  -12.270509|    3.289384|
|         110|  7.3714e+00|   -5.209806|   -5.314397|   -5.611869|   -5.325927|   -4.988072|  -12.268451|    3.289273|
|         111|  7.3484e+00|   -5.208232|   -5.313871|   -5.611102|   -5.324734|   -4.986669|  -12.266088|    3.289138|
|         112|  7.3299e+00|   -5.206464|   -5.313193|   -5.610196|   -5.323333|   -4.985132|  -12.263396|    3.288971|
|         113|  7.3108e+00|   -5.204497|   -5.312322|   -5.609129|   -5.321688|   -4.983473|  -12.260351|    3.288764|
|         114|  7.2919e+00|   -5.202322|   -5.311222|   -5.607880|   -5.319758|   -4.981693|  -12.256916|    3.288506|
|         115|  7.2737e+00|   -5.199903|   -5.309877|   -5.606429|   -5.317485|   -4.979759|  -12.253014|    3.288183|
|         116|  7.2594e+00|   -5.197143|   -5.308324|   -5.604755|   -5.314783|   -4.977552|  -12.248496|    3.287778|
|         117|  7.2462e+00|   -5.193834|   -5.306676|   -5.602832|   -5.311521|   -4.974797|  -12.243100|    3.287270|
|         118|  7.2361e+00|   -5.189618|   -5.305103|   -5.600612|   -5.307496|   -4.970997|  -12.236438|    3.286632|
|         119|  7.2259e+00|   -5.184041|   -5.303764|   -5.598022|   -5.302430|   -4.965514|  -12.228316|    3.285834|
|         120|  7.2196e+00|   -5.176851|   -5.302746|   -5.595002|   -5.296010|   -4.958057|  -12.219098|    3.284841|
|         121|  7.2131e+00|   -5.168249|   -5.302169|   -5.591578|   -5.287957|   -4.949155|  -12.209226|    3.283602|
|         122|  7.2113e+00|   -5.158608|   -5.302077|   -5.587789|   -5.278047|   -4.939574|  -12.199069|    3.282153|
|         123|  7.2088e+00|   -5.148160|   -5.302009|   -5.583554|   -5.266643|   -4.929488|  -12.189312|    3.280657|
|         124|  7.2035e+00|   -5.137430|   -5.301096|   -5.578817|   -5.254885|   -4.919217|  -12.179103|    3.279098|
|         125|  7.1978e+00|   -5.126818|   -5.299155|   -5.573539|   -5.243066|   -4.909384|  -12.168554|    3.277465|
|         126|  7.1920e+00|   -5.116242|   -5.296208|   -5.567711|   -5.231285|   -4.899880|  -12.157249|    3.275748|
|         127|  7.1865e+00|   -5.105237|   -5.292518|   -5.561282|   -5.219466|   -4.889948|  -12.144975|    3.273943|
|         128|  7.1810e+00|   -5.093490|   -5.288464|   -5.554224|   -5.207465|   -4.879070|  -12.132007|    3.272046|
|         129|  7.1759e+00|   -5.081023|   -5.284220|   -5.546585|   -5.195217|   -4.867261|  -12.118711|    3.270053|
|         130|  7.1703e+00|   -5.068017|   -5.279658|   -5.538407|   -5.182733|   -4.854758|  -12.105401|    3.267964|
|         131|  7.1651e+00|   -5.054706|   -5.274490|   -5.529731|   -5.170104|   -4.841860|  -12.092227|    3.265777|
|         132|  7.1599e+00|   -5.041280|   -5.268600|   -5.520605|   -5.157470|   -4.828807|  -12.079122|    3.263494|
|         133|  7.1549e+00|   -5.027766|   -5.261992|   -5.511055|   -5.144954|   -4.815601|  -12.065954|    3.261117|
|         134|  7.1503e+00|   -5.014173|   -5.254719|   -5.501094|   -5.132635|   -4.802216|  -12.052759|    3.258654|
|         135|  7.1452e+00|   -5.000544|   -5.246857|   -5.490723|   -5.120557|   -4.788702|  -12.039556|    3.256112|
|         136|  7.1408e+00|   -4.986931|   -5.238460|   -5.479952|   -5.108731|   -4.775138|  -12.026402|    3.253502|
|         137|  7.1361e+00|   -4.973355|   -5.229525|   -5.468777|   -5.097122|   -4.761558|  -12.013329|    3.250839|
|         138|  7.1316e+00|   -4.959816|   -5.220049|   -5.457217|   -5.085698|   -4.747957|  -12.000318|    3.248132|
|         139|  7.1274e+00|   -4.946328|   -5.210056|   -5.445301|   -5.074468|   -4.734331|  -11.987422|    3.245392|
|         140|  7.1231e+00|   -4.932891|   -5.199583|   -5.433071|   -5.063452|   -4.720677|  -11.974642|    3.242620|
|         141|  7.1189e+00|   -4.919539|   -5.188695|   -5.420588|   -5.052697|   -4.707041|  -11.961959|    3.239810|
|         142|  7.1144e+00|   -4.906352|   -5.177504|   -5.407938|   -5.042296|   -4.693533|  -11.949347|    3.236942|
|         143|  7.1102e+00|   -4.893361|   -5.166110|   -5.395173|   -5.032292|   -4.680224|  -11.936835|    3.233986|
|         144|  7.1062e+00|   -4.880537|   -5.154510|   -5.382277|   -5.022636|   -4.667075|  -11.924488|    3.230900|
|         145|  7.1024e+00|   -4.867868|   -5.142666|   -5.369265|   -5.013288|   -4.654051|  -11.912305|    3.227632|
|         146|  7.0985e+00|   -4.855334|   -5.130575|   -5.356175|   -5.004210|   -4.641139|  -11.900314|    3.224125|
|         147|  7.0948e+00|   -4.842947|   -5.118277|   -5.343113|   -4.995420|   -4.628366|  -11.888473|    3.220324|
|         148|  7.0911e+00|   -4.830686|   -5.105823|   -5.330128|   -4.986908|   -4.615718|  -11.876734|    3.216180|
|         149|  7.0730e+00|   -4.818533|   -5.093263|   -5.317239|   -4.978646|   -4.603171|  -11.893328|    3.216048|
|         150|  7.0553e+00|   -4.817790|   -5.092774|   -5.316630|   -4.978096|   -4.602480|  -11.892104|    3.215890|
+-----------------------------------------------------------------------+
|        File Writing Summary       |              Filename             |
+-----------------------------------------------------------------------+
|SU2 binary restart                 |restart_flow.dat                   |
|Paraview                           |flow.vtu                           |
|Paraview surface                   |surface_flow.vtu                   |
+-----------------------------------------------------------------------+
+--------------------------------------------------------------------------------------------------------------------+
|  Inner_Iter|   Time(sec)|    rms[Rho]|   rms[RhoU]|   rms[RhoV]|   rms[RhoW]|   rms[RhoE]|     rms[nu]|          CD|
+--------------------------------------------------------------------------------------------------------------------+
|         151|  7.1795e+00|   -4.816909|   -5.092178|   -5.315898|   -4.977444|   -4.601664|  -11.890654|    3.215699|
|         152|  7.1650e+00|   -4.815868|   -5.091446|   -5.315021|   -4.976675|   -4.600701|  -11.888940|    3.215468|
|         153|  7.1508e+00|   -4.814642|   -5.090546|   -5.313970|   -4.975771|   -4.599570|  -11.886922|    3.215188|
|         154|  7.1361e+00|   -4.813203|   -5.089434|   -5.312710|   -4.974713|   -4.598247|  -11.884553|    3.214850|
|         155|  7.1216e+00|   -4.811521|   -5.088055|   -5.311203|   -4.973482|   -4.596707|  -11.881785|    3.214439|
|         156|  7.1070e+00|   -4.809565|   -5.086336|   -5.309398|   -4.972056|   -4.594923|  -11.878569|    3.213938|
|         157|  7.0925e+00|   -4.807307|   -5.084184|   -5.307239|   -4.970418|   -4.592872|  -11.874857|    3.213328|
|         158|  7.0806e+00|   -4.804717|   -5.081483|   -5.304661|   -4.968555|   -4.590533|  -11.870605|    3.212580|
|         159|  7.0690e+00|   -4.801771|   -5.078085|   -5.301588|   -4.966455|   -4.587881|  -11.865772|    3.211662|
|         160|  7.0574e+00|   -4.798440|   -5.073814|   -5.297931|   -4.964110|   -4.584889|  -11.860327|    3.210530|
|         161|  7.0465e+00|   -4.794699|   -5.068475|   -5.293599|   -4.961516|   -4.581517|  -11.854237|    3.209127|
|         162|  7.0384e+00|   -4.790500|   -5.061877|   -5.288494|   -4.958660|   -4.577685|  -11.847459|    3.207380|
|         163|  7.0302e+00|   -4.785761|   -5.053891|   -5.282526|   -4.955506|   -4.573247|  -11.839928|    3.205196|
|         164|  7.0217e+00|   -4.780319|   -5.044518|   -5.275604|   -4.951959|   -4.567919|  -11.831541|    3.202452|
|         165|  7.0164e+00|   -4.773899|   -5.034002|   -5.267681|   -4.947840|   -4.561254|  -11.822168|    3.198992|
|         166|  7.0107e+00|   -4.766108|   -5.022887|   -5.258726|   -4.942869|   -4.552641|  -11.811704|    3.194625|
|         167|  7.0074e+00|   -4.756509|   -5.011940|   -5.248719|   -4.936706|   -4.541462|  -11.800195|    3.189120|
|         168|  7.0041e+00|   -4.744846|   -5.001866|   -5.237628|   -4.929146|   -4.527452|  -11.789201|    3.182664|
|         169|  7.0013e+00|   -4.731860|   -4.993191|   -5.225876|   -4.920671|   -4.511877|  -11.780541|    3.176039|
|         170|  6.9983e+00|   -4.719364|   -4.985443|   -5.214344|   -4.912558|   -4.497430|  -11.772197|    3.169317|
|         171|  6.9950e+00|   -4.708239|   -4.976696|   -5.202932|   -4.905626|   -4.485180|  -11.764136|    3.162566|
|         172|  6.9918e+00|   -4.698680|   -4.966169|   -5.191720|   -4.900138|   -4.475248|  -11.756075|    3.155846|
|         173|  6.9893e+00|   -4.690321|   -4.954228|   -5.180793|   -4.895871|   -4.467012|  -11.747755|    3.149207|
|         174|  6.9868e+00|   -4.682521|   -4.941870|   -5.170232|   -4.892313|   -4.459527|  -11.739127|    3.142685|
|         175|  6.9840e+00|   -4.674689|   -4.930057|   -5.160057|   -4.888892|   -4.451945|  -11.730161|    3.136300|
|         176|  6.9813e+00|   -4.666512|   -4.919291|   -5.150230|   -4.885236|   -4.443825|  -11.721154|    3.130058|
|         177|  6.9781e+00|   -4.657970|   -4.909537|   -5.140635|   -4.881210|   -4.435136|  -11.712399|    3.123953|
|         178|  6.9750e+00|   -4.649337|   -4.900433|   -5.131196|   -4.877003|   -4.426208|  -11.704220|    3.117970|
|         179|  6.9726e+00|   -4.640911|   -4.891569|   -5.121892|   -4.872888|   -4.417432|  -11.696749|    3.112089|
|         180|  6.9698e+00|   -4.632925|   -4.882781|   -5.112823|   -4.869101|   -4.409128|  -11.689820|    3.106289|
|         181|  6.9671e+00|   -4.625411|   -4.874091|   -5.104095|   -4.865708|   -4.401371|  -11.683127|    3.100551|
|         182|  6.9643e+00|   -4.618301|   -4.865627|   -5.095756|   -4.862636|   -4.394077|  -11.676455|    3.094857|
|         183|  6.9614e+00|   -4.611419|   -4.857423|   -5.087700|   -4.859699|   -4.387009|  -11.669860|    3.089194|
|         184|  6.9588e+00|   -4.604721|   -4.849598|   -5.079850|   -4.856773|   -4.380101|  -11.663480|    3.083554|
|         185|  6.9566e+00|   -4.598257|   -4.842262|   -5.072207|   -4.853809|   -4.373410|  -11.657433|    3.077932|
|         186|  6.9545e+00|   -4.592161|   -4.835541|   -5.064861|   -4.850844|   -4.367125|  -11.651817|    3.072325|
|         187|  6.9523e+00|   -4.586511|   -4.829552|   -5.057865|   -4.847900|   -4.361371|  -11.646713|    3.066736|
|         188|  6.9497e+00|   -4.581308|   -4.824328|   -5.051228|   -4.844964|   -4.356138|  -11.642004|    3.061165|
|         189|  6.9474e+00|   -4.576500|   -4.819829|   -5.044893|   -4.842000|   -4.351360|  -11.637569|    3.055615|
|         190|  6.9452e+00|   -4.572040|   -4.815959|   -5.038760|   -4.838979|   -4.346976|  -11.633332|    3.050090|
|         191|  6.9431e+00|   -4.567869|   -4.812535|   -5.032720|   -4.835896|   -4.342910|  -11.629320|    3.044595|
|         192|  6.9410e+00|   -4.564001|   -4.809453|   -5.026774|   -4.832810|   -4.339150|  -11.625556|    3.039134|
|         193|  6.9389e+00|   -4.560473|   -4.806762|   -5.021023|   -4.829796|   -4.335769|  -11.622018|    3.033710|
|         194|  6.9369e+00|   -4.557305|   -4.804645|   -5.015610|   -4.826877|   -4.332831|  -11.618722|    3.028331|
|         195|  6.9344e+00|   -4.554452|   -4.803203|   -5.010575|   -4.824017|   -4.330305|  -11.615660|    3.023001|
|         196|  6.9326e+00|   -4.551855|   -4.802234|   -5.005917|   -4.821180|   -4.328066|  -11.612794|    3.017727|
|         197|  6.9304e+00|   -4.549496|   -4.801556|   -5.001537|   -4.818381|   -4.326097|  -11.610182|    3.012515|
|         198|  6.9288e+00|   -4.547351|   -4.801035|   -4.997356|   -4.815605|   -4.324344|  -11.607856|    3.007372|
|         199|  6.9266e+00|   -4.545399|   -4.800666|   -4.993355|   -4.812855|   -4.322776|  -11.605767|    3.002302|
|         200|  6.9248e+00|   -4.543664|   -4.800442|   -4.989566|   -4.810179|   -4.321421|  -11.603875|    2.997308|
|         201|  6.9232e+00|   -4.542178|   -4.800374|   -4.986028|   -4.807622|   -4.320328|  -11.602183|    2.992391|
|         202|  6.9211e+00|   -4.540950|   -4.800524|   -4.982742|   -4.805228|   -4.319531|  -11.600600|    2.987547|
|         203|  6.9191e+00|   -4.539918|   -4.801019|   -4.979640|   -4.802954|   -4.318987|  -11.599119|    2.982770|
|         204|  6.9174e+00|   -4.538985|   -4.801911|   -4.976674|   -4.800756|   -4.318585|  -11.597614|    2.978047|
|         205|  6.9157e+00|   -4.538070|   -4.803066|   -4.973745|   -4.798568|   -4.318193|  -11.596110|    2.973361|
|         206|  6.9136e+00|   -4.537216|   -4.804254|   -4.970897|   -4.796386|   -4.317838|  -11.594710|    2.968691|
|         207|  6.9117e+00|   -4.536488|   -4.805302|   -4.968228|   -4.794219|   -4.317598|  -11.593402|    2.964009|
|         208|  6.9098e+00|   -4.535927|   -4.806209|   -4.965835|   -4.792098|   -4.317563|  -11.592255|    2.959287|
|         209|  6.9080e+00|   -4.535474|   -4.806994|   -4.963674|   -4.790031|   -4.317654|  -11.591198|    2.954491|
|         210|  6.9064e+00|   -4.535050|   -4.807739|   -4.961640|   -4.788007|   -4.317766|  -11.590115|    2.949590|
|         211|  6.9049e+00|   -4.534610|   -4.808461|   -4.959606|   -4.786019|   -4.317811|  -11.588981|    2.944551|
|         212|  6.9031e+00|   -4.534188|   -4.809174|   -4.957533|   -4.784054|   -4.317821|  -11.587886|    2.939344|
|         213|  6.9012e+00|   -4.533855|   -4.809844|   -4.955441|   -4.782106|   -4.317882|  -11.586891|    2.933943|
|         214|  6.8992e+00|   -4.533683|   -4.810475|   -4.953442|   -4.780168|   -4.318120|  -11.586075|    2.928326|
|         215|  6.8974e+00|   -4.533624|   -4.811001|   -4.951554|   -4.778195|   -4.318497|  -11.585362|    2.922477|
|         216|  6.8958e+00|   -4.533586|   -4.811302|   -4.949735|   -4.776112|   -4.318881|  -11.584621|    2.916384|
|         217|  6.8939e+00|   -4.533479|   -4.811204|   -4.947945|   -4.773830|   -4.319122|  -11.583763|    2.910041|
|         218|  6.8922e+00|   -4.533285|   -4.810572|   -4.946141|   -4.771298|   -4.319170|  -11.582807|    2.903448|
|         219|  6.8907e+00|   -4.533043|   -4.809361|   -4.944305|   -4.768508|   -4.319081|  -11.581813|    2.896606|
|         220|  6.8890e+00|   -4.532798|   -4.807637|   -4.942396|   -4.765470|   -4.318926|  -11.580858|    2.889523|
|         221|  6.8874e+00|   -4.532537|   -4.805440|   -4.940352|   -4.762183|   -4.318713|  -11.579889|    2.882206|
|         222|  6.8859e+00|   -4.532203|   -4.802772|   -4.938104|   -4.758607|   -4.318369|  -11.578802|    2.874664|
|         223|  6.8841e+00|   -4.531745|   -4.799548|   -4.935618|   -4.754702|   -4.317820|  -11.577567|    2.866906|
|         224|  6.8825e+00|   -4.531143|   -4.795561|   -4.932826|   -4.750407|   -4.317017|  -11.576195|    2.858938|
|         225|  6.8807e+00|   -4.530441|   -4.790657|   -4.929731|   -4.745662|   -4.316004|  -11.574704|    2.850768|
|         226|  6.8788e+00|   -4.529669|   -4.784848|   -4.926334|   -4.740407|   -4.314841|  -11.573086|    2.842400|
|         227|  6.8770e+00|   -4.528802|   -4.778225|   -4.922630|   -4.734597|   -4.313514|  -11.571302|    2.833836|
|         228|  6.8754e+00|   -4.527771|   -4.770838|   -4.918634|   -4.728222|   -4.311946|  -11.569337|    2.825075|
|         229|  6.8740e+00|   -4.526510|   -4.762693|   -4.914341|   -4.721299|   -4.310059|  -11.567182|    2.816116|
|         230|  6.8722e+00|   -4.524999|   -4.753773|   -4.909725|   -4.713875|   -4.307839|  -11.564775|    2.806956|
|         231|  6.8705e+00|   -4.523268|   -4.744145|   -4.904755|   -4.706006|   -4.305354|  -11.562130|    2.797588|
|         232|  6.8597e+00|   -4.521358|   -4.733937|   -4.899437|   -4.697750|   -4.302715|  -11.586316|    2.797290|
|         233|  6.8489e+00|   -4.521029|   -4.733697|   -4.899200|   -4.697331|   -4.302479|  -11.585456|    2.796932|
|         234|  6.8385e+00|   -4.520646|   -4.733401|   -4.898915|   -4.696833|   -4.302210|  -11.584441|    2.796502|
|         235|  6.8296e+00|   -4.520205|   -4.733031|   -4.898571|   -4.696243|   -4.301907|  -11.583249|    2.795984|
|         236|  6.8209e+00|   -4.519703|   -4.732566|   -4.898156|   -4.695546|   -4.301570|  -11.581853|    2.795361|
|         237|  6.8124e+00|   -4.519137|   -4.731981|   -4.897656|   -4.694725|   -4.301204|  -11.580229|    2.794610|
|         238|  6.8039e+00|   -4.518509|   -4.731238|   -4.897050|   -4.693762|   -4.300818|  -11.578352|    2.793704|
|         239|  6.7955e+00|   -4.517827|   -4.730290|   -4.896318|   -4.692635|   -4.300427|  -11.576199|    2.792611|
|         240|  6.7873e+00|   -4.517105|   -4.729073|   -4.895433|   -4.691324|   -4.300054|  -11.573753|    2.791290|
|         241|  6.7805e+00|   -4.516372|   -4.727510|   -4.894361|   -4.689807|   -4.299735|  -11.571006|    2.789692|
|         242|  6.7739e+00|   -4.515663|   -4.725499|   -4.893067|   -4.688058|   -4.299513|  -11.567954|    2.787755|
|         243|  6.7673e+00|   -4.515024|   -4.722917|   -4.891505|   -4.686047|   -4.299432|  -11.564597|    2.785406|
|         244|  6.7609e+00|   -4.514500|   -4.719625|   -4.889628|   -4.683732|   -4.299525|  -11.560928|    2.782550|
|         245|  6.7565e+00|   -4.514114|   -4.715484|   -4.887379|   -4.681054|   -4.299777|  -11.556920|    2.779076|
|         246|  6.7518e+00|   -4.513824|   -4.710370|   -4.884703|   -4.677908|   -4.300070|  -11.552503|    2.774842|
|         247|  6.7474e+00|   -4.513474|   -4.704221|   -4.881552|   -4.674120|   -4.300119|  -11.547533|    2.769677|
|         248|  6.7445e+00|   -4.512735|   -4.697052|   -4.877887|   -4.669426|   -4.299412|  -11.541840|    2.763369|
|         249|  6.7418e+00|   -4.511092|   -4.688939|   -4.873659|   -4.663443|   -4.297206|  -11.535347|    2.755654|
|         250|  6.7405e+00|   -4.507941|   -4.679898|   -4.868782|   -4.655712|   -4.292705|  -11.528178|    2.746198|
|         251|  6.7394e+00|   -4.502895|   -4.669690|   -4.863095|   -4.645825|   -4.285493|  -11.522260|    2.735314|
|         252|  6.7386e+00|   -4.496392|   -4.658506|   -4.856739|   -4.634292|   -4.276524|  -11.519490|    2.724223|
|         253|  6.7379e+00|   -4.489863|   -4.647266|   -4.850324|   -4.622813|   -4.268140|  -11.516404|    2.712914|
|         254|  6.7369e+00|   -4.484223|   -4.635436|   -4.843754|   -4.611865|   -4.261438|  -11.512756|    2.701372|
|         255|  6.7360e+00|   -4.479658|   -4.622948|   -4.837019|   -4.601593|   -4.256567|  -11.508117|    2.689590|
|         256|  6.7350e+00|   -4.475815|   -4.610117|   -4.830187|   -4.591919|   -4.253037|  -11.502171|    2.677566|
|         257|  6.7343e+00|   -4.472076|   -4.597432|   -4.823352|   -4.582646|   -4.250071|  -11.494848|    2.665303|
|         258|  6.7336e+00|   -4.467861|   -4.585302|   -4.816625|   -4.573574|   -4.246939|  -11.486309|    2.652808|
|         259|  6.7325e+00|   -4.462822|   -4.573925|   -4.810095|   -4.564575|   -4.243184|  -11.476870|    2.640090|
|         260|  6.7313e+00|   -4.456904|   -4.563272|   -4.803805|   -4.555620|   -4.238686|  -11.466882|    2.627161|
|         261|  6.7304e+00|   -4.450278|   -4.553169|   -4.797750|   -4.546752|   -4.233593|  -11.456628|    2.614032|
|         262|  6.7295e+00|   -4.443220|   -4.543405|   -4.791904|   -4.538038|   -4.228162|  -11.446308|    2.600718|
|         263|  6.7285e+00|   -4.435977|   -4.533819|   -4.786230|   -4.529536|   -4.222627|  -11.436029|    2.587229|
|         264|  6.7277e+00|   -4.428702|   -4.524353|   -4.780693|   -4.521279|   -4.217127|  -11.425795|    2.573580|
|         265|  6.7267e+00|   -4.421428|   -4.515038|   -4.775269|   -4.513270|   -4.211668|  -11.415565|    2.559784|
|         266|  6.7259e+00|   -4.414107|   -4.505952|   -4.769944|   -4.505496|   -4.206160|  -11.405326|    2.545853|
|         267|  6.7254e+00|   -4.406676|   -4.497150|   -4.764710|   -4.497935|   -4.200491|  -11.395120|    2.531800|
|         268|  6.7248e+00|   -4.399107|   -4.488673|   -4.759552|   -4.490578|   -4.194598|  -11.385015|    2.517637|
|         269|  6.7241e+00|   -4.391427|   -4.480545|   -4.754448|   -4.483441|   -4.188495|  -11.375111|    2.503378|
|         270|  6.7233e+00|   -4.383702|   -4.472783|   -4.749376|   -4.476552|   -4.182258|  -11.365482|    2.489035|
|         271|  6.7223e+00|   -4.376002|   -4.465394|   -4.744308|   -4.469943|   -4.175966|  -11.356187|    2.474623|
|         272|  6.7213e+00|   -4.368397|   -4.458387|   -4.739227|   -4.463643|   -4.169700|  -11.347281|    2.460154|
|         273|  6.7204e+00|   -4.360932|   -4.451776|   -4.734121|   -4.457684|   -4.163520|  -11.338800|    2.445643|
|         274|  6.7195e+00|   -4.353647|   -4.445603|   -4.728992|   -4.452104|   -4.157490|  -11.330745|    2.431103|
|         275|  6.7185e+00|   -4.346559|   -4.439906|   -4.723849|   -4.446926|   -4.151639|  -11.323120|    2.416548|
|         276|  6.7178e+00|   -4.339677|   -4.434731|   -4.718705|   -4.442169|   -4.145994|  -11.315941|    2.401989|
|         277|  6.7169e+00|   -4.333009|   -4.430116|   -4.713573|   -4.437852|   -4.140580|  -11.309212|    2.387439|
|         278|  6.7161e+00|   -4.326560|   -4.426085|   -4.708458|   -4.433987|   -4.135415|  -11.302939|    2.372906|
|         279|  6.7153e+00|   -4.320342|   -4.422651|   -4.703366|   -4.430589|   -4.130528|  -11.297124|    2.358401|
|         280|  6.7145e+00|   -4.314371|   -4.419813|   -4.698312|   -4.427676|   -4.125945|  -11.291769|    2.343930|
|         281|  6.7137e+00|   -4.308666|   -4.417572|   -4.693317|   -4.425271|   -4.121707|  -11.286865|    2.329499|
|         282|  6.7129e+00|   -4.303249|   -4.415916|   -4.688405|   -4.423383|   -4.117843|  -11.282389|    2.315113|
|         283|  6.7120e+00|   -4.298133|   -4.414842|   -4.683602|   -4.422026|   -4.114380|  -11.278320|    2.300777|
|         284|  6.7110e+00|   -4.293325|   -4.414353|   -4.678935|   -4.421199|   -4.111334|  -11.274643|    2.286496|
|         285|  6.7104e+00|   -4.288813|   -4.414449|   -4.674428|   -4.420897|   -4.108696|  -11.271342|    2.272271|
|         286|  6.7094e+00|   -4.284581|   -4.415115|   -4.670099|   -4.421097|   -4.106436|  -11.268401|    2.258107|
|         287|  6.7089e+00|   -4.280613|   -4.416331|   -4.665963|   -4.421773|   -4.104527|  -11.265827|    2.244006|
|         288|  6.7081e+00|   -4.276901|   -4.418066|   -4.662044|   -4.422899|   -4.102948|  -11.263611|    2.229973|
|         289|  6.7072e+00|   -4.273441|   -4.420286|   -4.658359|   -4.424444|   -4.101687|  -11.261738|    2.216010|
|         290|  6.7064e+00|   -4.270245|   -4.422950|   -4.654939|   -4.426374|   -4.100738|  -11.260184|    2.202121|
|         291|  6.7056e+00|   -4.267304|   -4.426011|   -4.651795|   -4.428655|   -4.100081|  -11.258881|    2.188311|
|         292|  6.7049e+00|   -4.264617|   -4.429429|   -4.648936|   -4.431267|   -4.099703|  -11.257767|    2.174584|
|         293|  6.7042e+00|   -4.262169|   -4.433120|   -4.646367|   -4.434139|   -4.099557|  -11.256774|    2.160944|
|         294|  6.7036e+00|   -4.259950|   -4.437031|   -4.644087|   -4.437229|   -4.099612|  -11.255855|    2.147394|
|         295|  6.7029e+00|   -4.257947|   -4.441076|   -4.642098|   -4.440473|   -4.099826|  -11.254965|    2.133940|
|         296|  6.7022e+00|   -4.256163|   -4.445164|   -4.640396|   -4.443807|   -4.100164|  -11.254061|    2.120584|
|         297|  6.7015e+00|   -4.254584|   -4.449209|   -4.638979|   -4.447158|   -4.100585|  -11.253157|    2.107331|
|         298|  6.7010e+00|   -4.253207|   -4.453119|   -4.637837|   -4.450455|   -4.101050|  -11.252244|    2.094185|
|         299|  6.7004e+00|   -4.252020|   -4.456807|   -4.636954|   -4.453626|   -4.101521|  -11.251305|    2.081148|
|         300|  6.6998e+00|   -4.251026|   -4.460191|   -4.636321|   -4.456606|   -4.101972|  -11.250320|    2.068224|
+-----------------------------------------------------------------------+
|        File Writing Summary       |              Filename             |
+-----------------------------------------------------------------------+
|SU2 binary restart                 |restart_flow.dat                   |
|Paraview                           |flow.vtu                           |
|Paraview surface                   |surface_flow.vtu                   |
+-----------------------------------------------------------------------+
+--------------------------------------------------------------------------------------------------------------------+
|  Inner_Iter|   Time(sec)|    rms[Rho]|   rms[RhoU]|   rms[RhoV]|   rms[RhoW]|   rms[RhoE]|     rms[nu]|          CD|
+--------------------------------------------------------------------------------------------------------------------+
|         301|  6.7703e+00|   -4.250225|   -4.463202|   -4.635924|   -4.459337|   -4.102386|  -11.249249|    2.055415|
|         302|  6.7703e+00|   -4.249609|   -4.465770|   -4.635740|   -4.461768|   -4.102739|  -11.248051|    2.042723|
|         303|  6.7699e+00|   -4.249182|   -4.467839|   -4.635752|   -4.463861|   -4.103023|  -11.246689|    2.030149|
|         304|  6.7693e+00|   -4.248946|   -4.469372|   -4.635937|   -4.465585|   -4.103236|  -11.245167|    2.017696|
|         305|  6.7686e+00|   -4.248911|   -4.470355|   -4.636276|   -4.466908|   -4.103377|  -11.243498|    2.005366|
|         306|  6.7680e+00|   -4.249062|   -4.470777|   -4.636747|   -4.467812|   -4.103435|  -11.241661|    1.993159|
|         307|  6.7675e+00|   -4.249404|   -4.470657|   -4.637332|   -4.468290|   -4.103419|  -11.239614|    1.981078|
|         308|  6.7667e+00|   -4.249933|   -4.470028|   -4.638020|   -4.468362|   -4.103331|  -11.237363|    1.969123|
|         309|  6.7658e+00|   -4.250644|   -4.468937|   -4.638802|   -4.468052|   -4.103179|  -11.234920|    1.957296|
|         310|  6.7652e+00|   -4.251533|   -4.467440|   -4.639672|   -4.467397|   -4.102983|  -11.232340|    1.945596|
|         311|  6.7648e+00|   -4.252598|   -4.465603|   -4.640629|   -4.466441|   -4.102766|  -11.229615|    1.934026|
|         312|  6.7639e+00|   -4.253829|   -4.463494|   -4.641672|   -4.465230|   -4.102543|  -11.226748|    1.922584|
|         313|  6.7633e+00|   -4.255230|   -4.461191|   -4.642806|   -4.463826|   -4.102344|  -11.223741|    1.911272|
|         314|  6.7626e+00|   -4.256788|   -4.458764|   -4.644025|   -4.462282|   -4.102187|  -11.220621|    1.900088|
|         315|  6.7618e+00|   -4.258499|   -4.456285|   -4.645332|   -4.460657|   -4.102097|  -11.217413|    1.889032|
|         316|  6.7609e+00|   -4.260359|   -4.453824|   -4.646729|   -4.459007|   -4.102099|  -11.214108|    1.878103|
|         317|  6.7602e+00|   -4.262360|   -4.451433|   -4.648213|   -4.457377|   -4.102210|  -11.210685|    1.867301|
|         318|  6.7599e+00|   -4.264490|   -4.449165|   -4.649784|   -4.455812|   -4.102443|  -11.207130|    1.856624|
|         319|  6.7594e+00|   -4.266742|   -4.447063|   -4.651442|   -4.454350|   -4.102813|  -11.203491|    1.846073|
|         320|  6.7586e+00|   -4.269111|   -4.445164|   -4.653191|   -4.453032|   -4.103335|  -11.199769|    1.835645|
|         321|  6.7580e+00|   -4.271587|   -4.443495|   -4.655028|   -4.451880|   -4.104017|  -11.195990|    1.825342|
|         322|  6.7572e+00|   -4.274166|   -4.442048|   -4.656958|   -4.450901|   -4.104855|  -11.192156|    1.815163|
|         323|  6.7566e+00|   -4.276839|   -4.440828|   -4.658999|   -4.450093|   -4.105844|  -11.188314|    1.805108|
|         324|  6.7560e+00|   -4.279596|   -4.439890|   -4.661159|   -4.449501|   -4.107001|  -11.184461|    1.795178|
|         325|  6.7556e+00|   -4.282427|   -4.439259|   -4.663438|   -4.449152|   -4.108330|  -11.180570|    1.785373|
|         326|  6.7552e+00|   -4.285326|   -4.438939|   -4.665830|   -4.449055|   -4.109831|  -11.176599|    1.775696|
|         327|  6.7544e+00|   -4.288295|   -4.438940|   -4.668331|   -4.449225|   -4.111514|  -11.172506|    1.766147|
|         328|  6.7537e+00|   -4.291330|   -4.439254|   -4.670935|   -4.449666|   -4.113377|  -11.168297|    1.756729|
|         329|  6.7529e+00|   -4.294438|   -4.439869|   -4.673650|   -4.450380|   -4.115425|  -11.163956|    1.747444|
|         330|  6.7522e+00|   -4.297611|   -4.440771|   -4.676466|   -4.451361|   -4.117648|  -11.159466|    1.738294|
|         331|  6.7514e+00|   -4.300846|   -4.441953|   -4.679376|   -4.452599|   -4.120041|  -11.154848|    1.729282|
|         332|  6.7507e+00|   -4.304134|   -4.443409|   -4.682366|   -4.454083|   -4.122592|  -11.150133|    1.720409|
|         333|  6.7498e+00|   -4.307464|   -4.445136|   -4.685422|   -4.455803|   -4.125291|  -11.145398|    1.711680|
|         334|  6.7492e+00|   -4.310831|   -4.447141|   -4.688538|   -4.457745|   -4.128138|  -11.140650|    1.703095|
|         335|  6.7484e+00|   -4.314242|   -4.449418|   -4.691703|   -4.459893|   -4.131122|  -11.135877|    1.694658|
|         336|  6.7476e+00|   -4.317690|   -4.451948|   -4.694914|   -4.462233|   -4.134225|  -11.131082|    1.686372|
|         337|  6.7468e+00|   -4.321177|   -4.454720|   -4.698166|   -4.464769|   -4.137447|  -11.126303|    1.678240|
|         338|  6.7461e+00|   -4.324702|   -4.457721|   -4.701451|   -4.467502|   -4.140785|  -11.121638|    1.670264|
|         339|  6.7453e+00|   -4.328262|   -4.460943|   -4.704754|   -4.470428|   -4.144236|  -11.117090|    1.662447|
|         340|  6.7448e+00|   -4.331862|   -4.464379|   -4.708066|   -4.473541|   -4.147802|  -11.112591|    1.654791|
|         341|  6.7443e+00|   -4.335499|   -4.468012|   -4.711389|   -4.476827|   -4.151474|  -11.108108|    1.647298|
|         342|  6.7437e+00|   -4.339176|   -4.471828|   -4.714719|   -4.480271|   -4.155247|  -11.103647|    1.639971|
|         343|  6.7429e+00|   -4.342894|   -4.475825|   -4.718057|   -4.483873|   -4.159120|  -11.099198|    1.632809|
|         344|  6.7421e+00|   -4.346646|   -4.479987|   -4.721396|   -4.487614|   -4.163084|  -11.094741|    1.625814|
|         345|  6.7413e+00|   -4.350429|   -4.484305|   -4.724735|   -4.491483|   -4.167131|  -11.090362|    1.618986|
|         346|  6.7407e+00|   -4.354244|   -4.488775|   -4.728071|   -4.495469|   -4.171261|  -11.086053|    1.612323|
|         347|  6.7401e+00|   -4.358083|   -4.493392|   -4.731401|   -4.499556|   -4.175461|  -11.081878|    1.605826|
|         348|  6.7395e+00|   -4.361937|   -4.498138|   -4.734728|   -4.503731|   -4.179719|  -11.077844|    1.599492|
|         349|  6.7389e+00|   -4.365797|   -4.502999|   -4.738056|   -4.507980|   -4.184024|  -11.073829|    1.593320|
|         350|  6.7381e+00|   -4.369653|   -4.507963|   -4.741379|   -4.512294|   -4.188364|  -11.069810|    1.587309|
|         351|  6.7371e+00|   -4.373497|   -4.513007|   -4.744699|   -4.516654|   -4.192725|  -11.065892|    1.581457|
|         352|  6.7364e+00|   -4.377324|   -4.518123|   -4.748015|   -4.521050|   -4.197104|  -11.062097|    1.575763|
|         353|  6.7357e+00|   -4.381134|   -4.523303|   -4.751324|   -4.525475|   -4.201500|  -11.058455|    1.570226|
|         354|  6.7350e+00|   -4.384916|   -4.528537|   -4.754618|   -4.529906|   -4.205903|  -11.054970|    1.564844|
|         355|  6.7343e+00|   -4.388660|   -4.533807|   -4.757893|   -4.534324|   -4.210296|  -11.051532|    1.559620|
|         356|  6.7338e+00|   -4.392354|   -4.539100|   -4.761145|   -4.538705|   -4.214663|  -11.048106|    1.554553|
|         357|  6.7329e+00|   -4.395993|   -4.544401|   -4.764378|   -4.543030|   -4.218995|  -11.044687|    1.549644|
|         358|  6.7325e+00|   -4.399573|   -4.549701|   -4.767585|   -4.547279|   -4.223286|  -11.041286|    1.544896|
|         359|  6.7321e+00|   -4.403083|   -4.554980|   -4.770764|   -4.551432|   -4.227521|  -11.037858|    1.540310|
|         360|  6.7315e+00|   -4.406511|   -4.560224|   -4.773907|   -4.555465|   -4.231685|  -11.034394|    1.535891|
|         361|  6.7307e+00|   -4.409846|   -4.565424|   -4.777012|   -4.559356|   -4.235762|  -11.030910|    1.531641|
|         362|  6.7303e+00|   -4.413077|   -4.570568|   -4.780072|   -4.563087|   -4.239742|  -11.027416|    1.527563|
|         363|  6.7297e+00|   -4.416197|   -4.575642|   -4.783089|   -4.566639|   -4.243612|  -11.023845|    1.523660|
|         364|  6.7292e+00|   -4.419196|   -4.580633|   -4.786058|   -4.569995|   -4.247359|  -11.020222|    1.519935|
|         365|  6.7289e+00|   -4.422059|   -4.585528|   -4.788966|   -4.573132|   -4.250969|  -11.016567|    1.516390|
|         366|  6.7286e+00|   -4.424779|   -4.590320|   -4.791805|   -4.576032|   -4.254430|  -11.012834|    1.513026|
|         367|  6.7282e+00|   -4.427345|   -4.595003|   -4.794565|   -4.578677|   -4.257731|  -11.009059|    1.509844|
|         368|  6.7277e+00|   -4.429746|   -4.599561|   -4.797238|   -4.581049|   -4.260853|  -11.005255|    1.506844|
|         369|  6.7272e+00|   -4.431969|   -4.603983|   -4.799815|   -4.583134|   -4.263782|  -11.001438|    1.504028|
|         370|  6.7270e+00|   -4.434006|   -4.608257|   -4.802289|   -4.584923|   -4.266509|  -10.997613|    1.501393|
|         371|  6.7266e+00|   -4.435852|   -4.612379|   -4.804655|   -4.586415|   -4.269028|  -10.993801|    1.498940|
|         372|  6.7263e+00|   -4.437509|   -4.616344|   -4.806902|   -4.587611|   -4.271341|  -10.989988|    1.496667|
|         373|  6.7258e+00|   -4.438971|   -4.620148|   -4.809019|   -4.588518|   -4.273446|  -10.986149|    1.494572|
|         374|  6.7250e+00|   -4.440233|   -4.623787|   -4.811007|   -4.589135|   -4.275340|  -10.982314|    1.492655|
|         375|  6.7244e+00|   -4.441290|   -4.627262|   -4.812853|   -4.589465|   -4.277018|  -10.978512|    1.490912|
|         376|  6.7241e+00|   -4.442133|   -4.630568|   -4.814554|   -4.589500|   -4.278472|  -10.974747|    1.489341|
|         377|  6.7237e+00|   -4.442752|   -4.633698|   -4.816102|   -4.589241|   -4.279693|  -10.971001|    1.487941|
|         378|  6.7230e+00|   -4.443147|   -4.636656|   -4.817491|   -4.588694|   -4.280682|  -10.967267|    1.486707|
|         379|  6.7223e+00|   -4.443315|   -4.639441|   -4.818715|   -4.587863|   -4.281437|  -10.963539|    1.485637|
|         380|  6.7216e+00|   -4.443255|   -4.642055|   -4.819773|   -4.586759|   -4.281958|  -10.959842|    1.484728|
|         381|  6.7210e+00|   -4.442967|   -4.644503|   -4.820657|   -4.585394|   -4.282248|  -10.956208|    1.483975|
|         382|  6.7204e+00|   -4.442456|   -4.646796|   -4.821370|   -4.583784|   -4.282314|  -10.952646|    1.483376|
|         383|  6.7197e+00|   -4.441733|   -4.648938|   -4.821909|   -4.581947|   -4.282166|  -10.949147|    1.482926|
|         384|  6.7190e+00|   -4.440803|   -4.650929|   -4.822269|   -4.579903|   -4.281810|  -10.945698|    1.482622|
|         385|  6.7184e+00|   -4.439671|   -4.652770|   -4.822440|   -4.577668|   -4.281254|  -10.942272|    1.482460|
|         386|  6.7178e+00|   -4.438346|   -4.654471|   -4.822426|   -4.575253|   -4.280508|  -10.938821|    1.482438|
|         387|  6.7171e+00|   -4.436836|   -4.656027|   -4.822236|   -4.572672|   -4.279578|  -10.935296|    1.482551|
|         388|  6.7164e+00|   -4.435143|   -4.657443|   -4.821876|   -4.569926|   -4.278465|  -10.931697|    1.482798|
|         389|  6.7156e+00|   -4.433280|   -4.658721|   -4.821352|   -4.567036|   -4.277181|  -10.928040|    1.483176|
|         390|  6.7151e+00|   -4.431248|   -4.659864|   -4.820669|   -4.564011|   -4.275729|  -10.924362|    1.483683|
|         391|  6.7146e+00|   -4.429049|   -4.660877|   -4.819828|   -4.560858|   -4.274111|  -10.920639|    1.484318|
|         392|  6.7139e+00|   -4.426689|   -4.661767|   -4.818829|   -4.557589|   -4.272331|  -10.916920|    1.485078|
|         393|  6.7132e+00|   -4.424178|   -4.662533|   -4.817672|   -4.554220|   -4.270403|  -10.913193|    1.485963|
|         394|  6.7128e+00|   -4.421535|   -4.663178|   -4.816362|   -4.550773|   -4.268343|  -10.909482|    1.486971|
|         395|  6.7124e+00|   -4.418773|   -4.663708|   -4.814904|   -4.547260|   -4.266165|  -10.905778|    1.488102|
|         396|  6.7120e+00|   -4.415898|   -4.664125|   -4.813298|   -4.543689|   -4.263872|  -10.902068|    1.489354|
|         397|  6.7116e+00|   -4.412917|   -4.664432|   -4.811551|   -4.540074|   -4.261474|  -10.898361|    1.490728|
|         398|  6.7113e+00|   -4.409842|   -4.664632|   -4.809671|   -4.536430|   -4.258980|  -10.894654|    1.492221|
|         399|  6.7109e+00|   -4.406680|   -4.664728|   -4.807661|   -4.532770|   -4.256400|  -10.890960|    1.493834|
|         400|  6.7104e+00|   -4.403444|   -4.664734|   -4.805531|   -4.529105|   -4.253744|  -10.887260|    1.495566|
|         401|  6.7098e+00|   -4.400138|   -4.664644|   -4.803285|   -4.525433|   -4.251016|  -10.883562|    1.497415|
|         402|  6.7093e+00|   -4.396770|   -4.664459|   -4.800936|   -4.521760|   -4.248220|  -10.879906|    1.499380|
|         403|  6.7086e+00|   -4.393345|   -4.664182|   -4.798489|   -4.518087|   -4.245362|  -10.876272|    1.501461|
|         404|  6.7081e+00|   -4.389874|   -4.663816|   -4.795951|   -4.514427|   -4.242453|  -10.872665|    1.503655|
|         405|  6.7076e+00|   -4.386372|   -4.663361|   -4.793329|   -4.510789|   -4.239506|  -10.869113|    1.505961|
|         406|  6.7070e+00|   -4.382844|   -4.662818|   -4.790627|   -4.507180|   -4.236524|  -10.865598|    1.508377|
|         407|  6.7064e+00|   -4.379298|   -4.662190|   -4.787853|   -4.503605|   -4.233518|  -10.862070|    1.510902|
|         408|  6.7060e+00|   -4.375741|   -4.661482|   -4.785017|   -4.500072|   -4.230493|  -10.858509|    1.513533|
|         409|  6.7055e+00|   -4.372162|   -4.660690|   -4.782117|   -4.496566|   -4.227437|  -10.854928|    1.516267|
|         410|  6.7050e+00|   -4.368563|   -4.659816|   -4.779162|   -4.493087|   -4.224348|  -10.851328|    1.519104|
|         411|  6.7045e+00|   -4.364954|   -4.658867|   -4.776159|   -4.489644|   -4.221241|  -10.847721|    1.522040|
|         412|  6.7040e+00|   -4.361334|   -4.657841|   -4.773114|   -4.486231|   -4.218109|  -10.844098|    1.525072|
|         413|  6.7036e+00|   -4.357702|   -4.656739|   -4.770030|   -4.482845|   -4.214952|  -10.840459|    1.528199|
|         414|  6.7030e+00|   -4.354065|   -4.655564|   -4.766912|   -4.479482|   -4.211775|  -10.836818|    1.531416|
|         415|  6.7024e+00|   -4.350427|   -4.654318|   -4.763767|   -4.476142|   -4.208582|  -10.833181|    1.534723|
|         416|  6.7021e+00|   -4.346805|   -4.653001|   -4.760601|   -4.472835|   -4.205390|  -10.829538|    1.538115|
|         417|  6.7016e+00|   -4.343195|   -4.651612|   -4.757419|   -4.469554|   -4.202192|  -10.825893|    1.541589|
|         418|  6.7013e+00|   -4.339622|   -4.650156|   -4.754224|   -4.466323|   -4.199015|  -10.822295|    1.545143|
|         419|  6.7008e+00|   -4.336070|   -4.648627|   -4.751018|   -4.463125|   -4.195843|  -10.818751|    1.548774|
|         420|  6.7001e+00|   -4.332551|   -4.647028|   -4.747809|   -4.459968|   -4.192688|  -10.815252|    1.552478|
|         421|  6.6996e+00|   -4.329070|   -4.645360|   -4.744604|   -4.456857|   -4.189557|  -10.811793|    1.556254|
|         422|  6.6991e+00|   -4.325625|   -4.643623|   -4.741409|   -4.453788|   -4.186448|  -10.808346|    1.560097|
|         423|  6.6987e+00|   -4.322216|   -4.641824|   -4.738224|   -4.450761|   -4.183361|  -10.804924|    1.564006|
|         424|  6.6982e+00|   -4.318844|   -4.639967|   -4.735050|   -4.447774|   -4.180296|  -10.801524|    1.567978|
|         425|  6.6976e+00|   -4.315514|   -4.638056|   -4.731886|   -4.444838|   -4.177263|  -10.798112|    1.572009|
|         426|  6.6970e+00|   -4.312218|   -4.636096|   -4.728730|   -4.441950|   -4.174254|  -10.794720|    1.576096|
|         427|  6.6966e+00|   -4.308953|   -4.634089|   -4.725579|   -4.439109|   -4.171269|  -10.791354|    1.580236|
|         428|  6.6962e+00|   -4.305727|   -4.632033|   -4.722435|   -4.436328|   -4.168319|  -10.787978|    1.584426|
|         429|  6.6958e+00|   -4.302548|   -4.629932|   -4.719306|   -4.433615|   -4.165414|  -10.784596|    1.588662|
|         430|  6.6954e+00|   -4.299402|   -4.627789|   -4.716190|   -4.430963|   -4.162540|  -10.781183|    1.592942|
|         431|  6.6950e+00|   -4.296301|   -4.625606|   -4.713095|   -4.428385|   -4.159713|  -10.777760|    1.597263|
|         432|  6.6946e+00|   -4.293239|   -4.623385|   -4.710022|   -4.425868|   -4.156923|  -10.774299|    1.601622|
|         433|  6.6941e+00|   -4.290225|   -4.621128|   -4.706970|   -4.423425|   -4.154182|  -10.770777|    1.606019|
|         434|  6.6936e+00|   -4.287258|   -4.618839|   -4.703943|   -4.421050|   -4.151487|  -10.767179|    1.610451|
|         435|  6.6930e+00|   -4.284328|   -4.616522|   -4.700940|   -4.418729|   -4.148824|  -10.763504|    1.614916|
|         436|  6.6926e+00|   -4.281430|   -4.614176|   -4.697961|   -4.416455|   -4.146191|  -10.759702|    1.619414|
|         437|  6.6922e+00|   -4.278565|   -4.611801|   -4.695006|   -4.414226|   -4.143589|  -10.755777|    1.623944|
|         438|  6.6917e+00|   -4.275736|   -4.609396|   -4.692078|   -4.412041|   -4.141020|  -10.751716|    1.628503|
|         439|  6.6912e+00|   -4.272935|   -4.606958|   -4.689175|   -4.409897|   -4.138479|  -10.747562|    1.633091|
|         440|  6.6907e+00|   -4.270170|   -4.604482|   -4.686303|   -4.407797|   -4.135969|  -10.743347|    1.637707|
|         441|  6.6902e+00|   -4.267437|   -4.601961|   -4.683462|   -4.405737|   -4.133488|  -10.739063|    1.642350|
|         442|  6.6898e+00|   -4.264728|   -4.599393|   -4.680654|   -4.403705|   -4.131022|  -10.734717|    1.647019|
|         443|  6.6895e+00|   -4.262043|   -4.596782|   -4.677890|   -4.401701|   -4.128573|  -10.730297|    1.651713|
|         444|  6.6890e+00|   -4.259383|   -4.594133|   -4.675174|   -4.399722|   -4.126139|  -10.725811|    1.656431|
|         445|  6.6885e+00|   -4.256750|   -4.591449|   -4.672505|   -4.397767|   -4.123721|  -10.721293|    1.661172|
|         446|  6.6881e+00|   -4.254152|   -4.588741|   -4.669886|   -4.395843|   -4.121327|  -10.716765|    1.665935|
|         447|  6.6877e+00|   -4.251586|   -4.586017|   -4.667316|   -4.393943|   -4.118950|  -10.712225|    1.670718|
|         448|  6.6873e+00|   -4.249056|   -4.583284|   -4.664800|   -4.392070|   -4.116594|  -10.707684|    1.675519|
|         449|  6.6869e+00|   -4.246575|   -4.580546|   -4.662344|   -4.390236|   -4.114274|  -10.703133|    1.680337|
|         450|  6.6864e+00|   -4.244147|   -4.577814|   -4.659956|   -4.388441|   -4.111994|  -10.698575|    1.685170|
+-----------------------------------------------------------------------+
|        File Writing Summary       |              Filename             |
+-----------------------------------------------------------------------+
|SU2 binary restart                 |restart_flow.dat                   |
|Paraview                           |flow.vtu                           |
|Paraview surface                   |surface_flow.vtu                   |
+-----------------------------------------------------------------------+
+--------------------------------------------------------------------------------------------------------------------+
|  Inner_Iter|   Time(sec)|    rms[Rho]|   rms[RhoU]|   rms[RhoV]|   rms[RhoW]|   rms[RhoE]|     rms[nu]|          CD|
+--------------------------------------------------------------------------------------------------------------------+
|         451|  6.7401e+00|   -4.241761|   -4.575090|   -4.657614|   -4.386676|   -4.109741|  -10.694009|    1.690016|
|         452|  6.7402e+00|   -4.239413|   -4.572379|   -4.655316|   -4.384932|   -4.107509|  -10.689405|    1.694874|
|         453|  6.7403e+00|   -4.237107|   -4.569685|   -4.653065|   -4.383216|   -4.105304|  -10.684720|    1.699740|
|         454|  6.7401e+00|   -4.234843|   -4.567011|   -4.650863|   -4.381530|   -4.103132|  -10.679944|    1.704615|
|         455|  6.7397e+00|   -4.232615|   -4.564363|   -4.648709|   -4.379869|   -4.100987|  -10.675087|    1.709495|
|         456|  6.7394e+00|   -4.230419|   -4.561743|   -4.646598|   -4.378228|   -4.098866|  -10.670126|    1.714379|
|         457|  6.7389e+00|   -4.228262|   -4.559156|   -4.644536|   -4.376623|   -4.096785|  -10.665076|    1.719265|
|         458|  6.7387e+00|   -4.226157|   -4.556604|   -4.642527|   -4.375070|   -4.094761|  -10.659960|    1.724153|
|         459|  6.7385e+00|   -4.224096|   -4.554095|   -4.640574|   -4.373558|   -4.092781|  -10.654807|    1.729041|
|         460|  6.7381e+00|   -4.222080|   -4.551631|   -4.638671|   -4.372086|   -4.090847|  -10.649623|    1.733927|
|         461|  6.7377e+00|   -4.220103|   -4.549215|   -4.636820|   -4.370651|   -4.088954|  -10.644410|    1.738811|
|         462|  6.7375e+00|   -4.218183|   -4.546848|   -4.635025|   -4.369274|   -4.087125|  -10.639151|    1.743692|
|         463|  6.7369e+00|   -4.216307|   -4.544529|   -4.633277|   -4.367942|   -4.085341|  -10.633853|    1.748568|
|         464|  6.7363e+00|   -4.214493|   -4.542263|   -4.631579|   -4.366671|   -4.083623|  -10.628525|    1.753438|
|         465|  6.7358e+00|   -4.212724|   -4.540044|   -4.629925|   -4.365448|   -4.081952|  -10.623190|    1.758302|
|         466|  6.7353e+00|   -4.211002|   -4.537865|   -4.628310|   -4.364278|   -4.080331|  -10.617853|    1.763158|
|         467|  6.7350e+00|   -4.209326|   -4.535728|   -4.626740|   -4.363168|   -4.078761|  -10.612529|    1.768004|
|         468|  6.7346e+00|   -4.207694|   -4.533613|   -4.625216|   -4.362113|   -4.077236|  -10.607186|    1.772840|
|         469|  6.7341e+00|   -4.206092|   -4.531511|   -4.623727|   -4.361100|   -4.075740|  -10.601864|    1.777665|
|         470|  6.7334e+00|   -4.204516|   -4.529412|   -4.622271|   -4.360123|   -4.074269|  -10.596567|    1.782477|
|         471|  6.7329e+00|   -4.202960|   -4.527307|   -4.620849|   -4.359178|   -4.072816|  -10.591265|    1.787275|
|         472|  6.7324e+00|   -4.201425|   -4.525186|   -4.619464|   -4.358262|   -4.071383|  -10.585970|    1.792058|
|         473|  6.7320e+00|   -4.199906|   -4.523041|   -4.618121|   -4.357370|   -4.069964|  -10.580682|    1.796824|
|         474|  6.7315e+00|   -4.198415|   -4.520869|   -4.616825|   -4.356515|   -4.068574|  -10.575380|    1.801572|
|         475|  6.7310e+00|   -4.196943|   -4.518664|   -4.615576|   -4.355687|   -4.067199|  -10.570087|    1.806300|
|         476|  6.7305e+00|   -4.195488|   -4.516425|   -4.614372|   -4.354883|   -4.065837|  -10.564818|    1.811007|
|         477|  6.7301e+00|   -4.194052|   -4.514151|   -4.613209|   -4.354098|   -4.064486|  -10.559574|    1.815689|
|         478|  6.7297e+00|   -4.192649|   -4.511846|   -4.612098|   -4.353344|   -4.063166|  -10.554350|    1.820344|
|         479|  6.7291e+00|   -4.191287|   -4.509513|   -4.611031|   -4.352623|   -4.061880|  -10.549133|    1.824969|
|         480|  6.7288e+00|   -4.189970|   -4.507153|   -4.610003|   -4.351939|   -4.060631|  -10.543918|    1.829562|
|         481|  6.7283e+00|   -4.188704|   -4.504765|   -4.609020|   -4.351298|   -4.059424|  -10.538711|    1.834119|
|         482|  6.7278e+00|   -4.187493|   -4.502356|   -4.608084|   -4.350716|   -4.058266|  -10.533494|    1.838638|
|         483|  6.7275e+00|   -4.186358|   -4.499934|   -4.607206|   -4.350209|   -4.057180|  -10.528252|    1.843115|
|         484|  6.7271e+00|   -4.185315|   -4.497508|   -4.606382|   -4.349804|   -4.056185|  -10.522985|    1.847549|
|         485|  6.7266e+00|   -4.184347|   -4.495080|   -4.605605|   -4.349484|   -4.055259|  -10.517671|    1.851935|
|         486|  6.7261e+00|   -4.183457|   -4.492650|   -4.604862|   -4.349250|   -4.054404|  -10.512316|    1.856274|
|         487|  6.7256e+00|   -4.182649|   -4.490223|   -4.604160|   -4.349112|   -4.053629|  -10.506941|    1.860564|
|         488|  6.7249e+00|   -4.181927|   -4.487797|   -4.603502|   -4.349078|   -4.052938|  -10.501547|    1.864803|
|         489|  6.7246e+00|   -4.181285|   -4.485372|   -4.602885|   -4.349147|   -4.052326|  -10.496110|    1.868993|
|         490|  6.7243e+00|   -4.180742|   -4.482944|   -4.602305|   -4.349342|   -4.051819|  -10.490638|    1.873133|
|         491|  6.7237e+00|   -4.180277|   -4.480504|   -4.601765|   -4.349638|   -4.051387|  -10.485130|    1.877225|
|         492|  6.7232e+00|   -4.179884|   -4.478043|   -4.601263|   -4.350030|   -4.051025|  -10.479583|    1.881270|
|         493|  6.7226e+00|   -4.179556|   -4.475550|   -4.600788|   -4.350510|   -4.050723|  -10.473966|    1.885270|
|         494|  6.7222e+00|   -4.179295|   -4.473020|   -4.600343|   -4.351081|   -4.050490|  -10.468293|    1.889223|
|         495|  6.7219e+00|   -4.179105|   -4.470438|   -4.599927|   -4.351747|   -4.050331|  -10.462574|    1.893133|
|         496|  6.7216e+00|   -4.178988|   -4.467786|   -4.599543|   -4.352515|   -4.050252|  -10.456812|    1.896997|
|         497|  6.7212e+00|   -4.178930|   -4.465042|   -4.599186|   -4.353368|   -4.050236|  -10.450989|    1.900816|
|         498|  6.7206e+00|   -4.178932|   -4.462190|   -4.598860|   -4.354304|   -4.050283|  -10.445091|    1.904589|
|         499|  6.7201e+00|   -4.178982|   -4.459211|   -4.598548|   -4.355312|   -4.050380|  -10.439080|    1.908315|
|         500|  6.7197e+00|   -4.179076|   -4.456089|   -4.598245|   -4.356384|   -4.050523|  -10.432937|    1.911992|
|         501|  6.7194e+00|   -4.179212|   -4.452797|   -4.597948|   -4.357520|   -4.050714|  -10.426664|    1.915618|
|         502|  6.7192e+00|   -4.179387|   -4.449312|   -4.597647|   -4.358721|   -4.050955|  -10.420255|    1.919191|
|         503|  6.7189e+00|   -4.179608|   -4.445614|   -4.597349|   -4.359994|   -4.051258|  -10.413727|    1.922709|
|         504|  6.7186e+00|   -4.179855|   -4.441656|   -4.597031|   -4.361320|   -4.051594|  -10.407059|    1.926171|
|         505|  6.7182e+00|   -4.180120|   -4.437399|   -4.596681|   -4.362689|   -4.051959|  -10.400259|    1.929576|
|         506|  6.7179e+00|   -4.180398|   -4.432797|   -4.596288|   -4.364095|   -4.052350|  -10.393320|    1.932921|
|         507|  6.7175e+00|   -4.180681|   -4.427800|   -4.595836|   -4.365530|   -4.052766|  -10.386226|    1.936206|
|         508|  6.7171e+00|   -4.180962|   -4.422350|   -4.595302|   -4.366981|   -4.053202|  -10.378977|    1.939431|
|         509|  6.7166e+00|   -4.181229|   -4.416395|   -4.594669|   -4.368432|   -4.053653|  -10.371565|    1.942593|
|         510|  6.7161e+00|   -4.181475|   -4.409853|   -4.593921|   -4.369854|   -4.054113|  -10.363985|    1.945693|
|         511|  6.7158e+00|   -4.181677|   -4.402639|   -4.593020|   -4.371201|   -4.054556|  -10.356213|    1.948729|
|         512|  6.7154e+00|   -4.181817|   -4.394667|   -4.591940|   -4.372417|   -4.054952|  -10.348235|    1.951700|
|         513|  6.7150e+00|   -4.181854|   -4.385850|   -4.590645|   -4.373403|   -4.055240|  -10.340060|    1.954607|
|         514|  6.7145e+00|   -4.181731|   -4.376095|   -4.589085|   -4.374023|   -4.055323|  -10.331650|    1.957447|
|         515|  6.7140e+00|   -4.181395|   -4.365329|   -4.587227|   -4.374128|   -4.055108|  -10.322995|    1.960221|
|         516|  6.7136e+00|   -4.180799|   -4.353520|   -4.585030|   -4.373556|   -4.054502|  -10.314078|    1.962926|
|         517|  6.7132e+00|   -4.179881|   -4.340709|   -4.582457|   -4.372123|   -4.053385|  -10.304896|    1.965562|
|         518|  6.7128e+00|   -4.178589|   -4.326955|   -4.579460|   -4.369641|   -4.051645|  -10.295450|    1.968127|
|         519|  6.7124e+00|   -4.176871|   -4.312340|   -4.575992|   -4.365937|   -4.049176|  -10.285808|    1.970620|
|         520|  6.7120e+00|   -4.174682|   -4.297024|   -4.572004|   -4.360903|   -4.045908|  -10.275978|    1.973039|
|         521|  6.7116e+00|   -4.172003|   -4.281227|   -4.567465|   -4.354521|   -4.041810|  -10.265974|    1.975383|
|         522|  6.7112e+00|   -4.168836|   -4.265062|   -4.562321|   -4.346809|   -4.036871|  -10.255844|    1.977649|
|         523|  6.7109e+00|   -4.165189|   -4.248713|   -4.556535|   -4.337910|   -4.031146|  -10.245664|    1.979836|
|         524|  6.7105e+00|   -4.161092|   -4.232293|   -4.550106|   -4.328048|   -4.024730|  -10.235450|    1.981943|
|         525|  6.7102e+00|   -4.156569|   -4.216015|   -4.543023|   -4.317399|   -4.017717|  -10.225216|    1.983966|
|         526|  6.7097e+00|   -4.151637|   -4.199939|   -4.535298|   -4.306080|   -4.010172|  -10.214992|    1.985905|
|         527|  6.7094e+00|   -4.146317|   -4.184082|   -4.527002|   -4.294236|   -4.002158|  -10.204825|    1.987758|
|         528|  6.7091e+00|   -4.140641|   -4.168327|   -4.518212|   -4.281833|   -3.993653|  -10.194748|    1.989524|
|         529|  6.7088e+00|   -4.134650|   -4.152725|   -4.509122|   -4.269065|   -3.984704|  -10.184810|    1.991202|
|         530|  6.7084e+00|   -4.128376|   -4.137329|   -4.499857|   -4.256021|   -3.975351|  -10.175048|    1.992790|
|         531|  6.7079e+00|   -4.121852|   -4.122432|   -4.490670|   -4.242899|   -3.965632|  -10.165514|    1.994289|
|         532|  6.7075e+00|   -4.115139|   -4.107801|   -4.481615|   -4.229566|   -3.955562|  -10.156184|    1.995699|
|         533|  6.7071e+00|   -4.108376|   -4.094005|   -4.472922|   -4.216439|   -3.945457|  -10.147075|    1.997019|
|         534|  6.7068e+00|   -4.101583|   -4.080909|   -4.464595|   -4.203511|   -3.935359|  -10.138212|    1.998250|
|         535|  6.7025e+00|   -4.094796|   -4.068396|   -4.456557|   -4.190717|   -3.925302|  -10.138754|    1.998289|
|         536|  6.6982e+00|   -4.094675|   -4.068059|   -4.456481|   -4.190406|   -3.925164|  -10.138342|    1.998336|
|         537|  6.6939e+00|   -4.094536|   -4.067658|   -4.456386|   -4.190038|   -3.925008|  -10.137847|    1.998392|
|         538|  6.6902e+00|   -4.094378|   -4.067185|   -4.456264|   -4.189604|   -3.924833|  -10.137253|    1.998458|
[...]
|        4613|  6.8075e+00|   -7.859431|   -7.946050|   -8.257131|   -7.983746|   -7.738460|   -8.834148|    1.889549|
|        4614|  6.8074e+00|   -7.857537|   -7.947816|   -8.256436|   -7.984105|   -7.737761|   -8.834780|    1.889549|
|        4615|  6.8073e+00|   -7.855670|   -7.949572|   -8.255762|   -7.984452|   -7.737057|   -8.835418|    1.889550|
|        4616|  6.8073e+00|   -7.853832|   -7.951317|   -8.255111|   -7.984788|   -7.736350|   -8.836063|    1.889550|
|        4617|  6.8073e+00|   -7.852025|   -7.953048|   -8.254485|   -7.985114|   -7.735641|   -8.836713|    1.889551|
|        4618|  6.8072e+00|   -7.850251|   -7.954765|   -8.253886|   -7.985430|   -7.734932|   -8.837369|    1.889551|
|        4619|  6.8072e+00|   -7.848512|   -7.956465|   -8.253315|   -7.985737|   -7.734224|   -8.838032|    1.889552|
|        4620|  6.8072e+00|   -7.846810|   -7.958147|   -8.252773|   -7.986034|   -7.733518|   -8.838700|    1.889552|
|        4621|  6.8071e+00|   -7.845148|   -7.959810|   -8.252262|   -7.986324|   -7.732816|   -8.839374|    1.889553|
|        4622|  6.8071e+00|   -7.843526|   -7.961452|   -8.251784|   -7.986607|   -7.732120|   -8.840054|    1.889554|
|        4623|  6.8071e+00|   -7.841948|   -7.963071|   -8.251339|   -7.986884|   -7.731431|   -8.840740|    1.889554|
|        4624|  6.8070e+00|   -7.840414|   -7.964668|   -8.250929|   -7.987155|   -7.730751|   -8.841432|    1.889555|
|        4625|  6.8070e+00|   -7.838925|   -7.966240|   -8.250556|   -7.987421|   -7.730081|   -8.842129|    1.889556|
|        4626|  6.8070e+00|   -7.837485|   -7.967787|   -8.250219|   -7.987685|   -7.729423|   -8.842832|    1.889556|
|        4627|  6.8070e+00|   -7.836094|   -7.969307|   -8.249920|   -7.987946|   -7.728778|   -8.843541|    1.889557|
|        4628|  6.8069e+00|   -7.834753|   -7.970800|   -8.249661|   -7.988206|   -7.728149|   -8.844255|    1.889558|
|        4629|  6.8069e+00|   -7.833465|   -7.972264|   -8.249441|   -7.988466|   -7.727536|   -8.844975|    1.889558|
|        4630|  6.8069e+00|   -7.832230|   -7.973700|   -8.249262|   -7.988728|   -7.726941|   -8.845700|    1.889559|
|        4631|  6.8069e+00|   -7.831049|   -7.975106|   -8.249124|   -7.988992|   -7.726366|   -8.846431|    1.889560|
|        4632|  6.8068e+00|   -7.829925|   -7.976483|   -8.249027|   -7.989260|   -7.725812|   -8.847167|    1.889561|
|        4633|  6.8068e+00|   -7.828858|   -7.977829|   -8.248974|   -7.989534|   -7.725282|   -8.847908|    1.889562|
|        4634|  6.8068e+00|   -7.827849|   -7.979145|   -8.248963|   -7.989814|   -7.724775|   -8.848655|    1.889562|
|        4635|  6.8067e+00|   -7.826900|   -7.980430|   -8.248995|   -7.990102|   -7.724295|   -8.849406|    1.889563|
|        4636|  6.8067e+00|   -7.826010|   -7.981684|   -8.249071|   -7.990400|   -7.723841|   -8.850163|    1.889564|
|        4637|  6.8067e+00|   -7.825182|   -7.982908|   -8.249191|   -7.990709|   -7.723417|   -8.850924|    1.889565|
|        4638|  6.8067e+00|   -7.824416|   -7.984101|   -8.249356|   -7.991030|   -7.723022|   -8.851690|    1.889566|
|        4639|  6.8067e+00|   -7.823713|   -7.985264|   -8.249564|   -7.991366|   -7.722659|   -8.852461|    1.889566|
|        4640|  6.8066e+00|   -7.823074|   -7.986397|   -8.249818|   -7.991716|   -7.722330|   -8.853236|    1.889567|
|        4641|  6.8066e+00|   -7.822500|   -7.987500|   -8.250115|   -7.992084|   -7.722034|   -8.854016|    1.889568|
|        4642|  6.8065e+00|   -7.821991|   -7.988575|   -8.250458|   -7.992470|   -7.721775|   -8.854801|    1.889569|
|        4643|  6.8065e+00|   -7.821548|   -7.989621|   -8.250845|   -7.992876|   -7.721552|   -8.855589|    1.889570|
|        4644|  6.8064e+00|   -7.821172|   -7.990640|   -8.251277|   -7.993303|   -7.721368|   -8.856382|    1.889571|
|        4645|  6.8064e+00|   -7.820863|   -7.991632|   -8.251754|   -7.993752|   -7.721223|   -8.857179|    1.889571|
|        4646|  6.8064e+00|   -7.820622|   -7.992599|   -8.252275|   -7.994226|   -7.721119|   -8.857980|    1.889572|
|        4647|  6.8063e+00|   -7.820449|   -7.993540|   -8.252840|   -7.994725|   -7.721057|   -8.858785|    1.889573|
|        4648|  6.8063e+00|   -7.820345|   -7.994457|   -8.253449|   -7.995252|   -7.721037|   -8.859593|    1.889574|
|        4649|  6.8062e+00|   -7.820310|   -7.995352|   -8.254102|   -7.995806|   -7.721062|   -8.860405|    1.889575|
|        4650|  6.8062e+00|   -7.820345|   -7.996225|   -8.254798|   -7.996390|   -7.721132|   -8.861220|    1.889576|
+-----------------------------------------------------------------------+
|        File Writing Summary       |              Filename             |
+-----------------------------------------------------------------------+
|SU2 binary restart                 |restart_flow.dat                   |
|Paraview                           |flow.vtu                           |
|Paraview surface                   |surface_flow.vtu                   |
+-----------------------------------------------------------------------+
+--------------------------------------------------------------------------------------------------------------------+
|  Inner_Iter|   Time(sec)|    rms[Rho]|   rms[RhoU]|   rms[RhoV]|   rms[RhoW]|   rms[RhoE]|     rms[nu]|          CD|
+--------------------------------------------------------------------------------------------------------------------+
|        4651|  6.8112e+00|   -7.820450|   -7.997077|   -8.255537|   -7.997005|   -7.721248|   -8.862039|    1.889577|
|        4652|  6.8112e+00|   -7.820625|   -7.997910|   -8.256319|   -7.997651|   -7.721411|   -8.862861|    1.889577|
|        4653|  6.8112e+00|   -7.820871|   -7.998724|   -8.257143|   -7.998331|   -7.721622|   -8.863686|    1.889578|
|        4654|  6.8111e+00|   -7.821188|   -7.999522|   -8.258010|   -7.999045|   -7.721882|   -8.864514|    1.889579|
|        4655|  6.8111e+00|   -7.821576|   -8.000303|   -8.258917|   -7.999795|   -7.722192|   -8.865345|    1.889580|
|        4656|  6.8111e+00|   -7.822035|   -8.001070|   -8.259866|   -8.000580|   -7.722553|   -8.866178|    1.889581|
|        4657|  6.8111e+00|   -7.822567|   -8.001824|   -8.260855|   -8.001403|   -7.722965|   -8.867014|    1.889582|
|        4658|  6.8110e+00|   -7.823169|   -8.002565|   -8.261884|   -8.002264|   -7.723429|   -8.867852|    1.889583|
|        4659|  6.8110e+00|   -7.823844|   -8.003295|   -8.262952|   -8.003164|   -7.723945|   -8.868692|    1.889583|
|        4660|  6.8110e+00|   -7.824590|   -8.004015|   -8.264059|   -8.004103|   -7.724515|   -8.869535|    1.889584|
|        4661|  6.8109e+00|   -7.825408|   -8.004726|   -8.265205|   -8.005082|   -7.725138|   -8.870379|    1.889585|
|        4662|  6.8109e+00|   -7.826298|   -8.005430|   -8.266387|   -8.006102|   -7.725816|   -8.871225|    1.889586|
|        4663|  6.8109e+00|   -7.827260|   -8.006127|   -8.267607|   -8.007163|   -7.726548|   -8.872073|    1.889587|
|        4664|  6.8108e+00|   -7.828293|   -8.006817|   -8.268863|   -8.008265|   -7.727336|   -8.872922|    1.889587|
|        4665|  6.8108e+00|   -7.829398|   -8.007503|   -8.270154|   -8.009409|   -7.728178|   -8.873773|    1.889588|
|        4666|  6.8107e+00|   -7.830574|   -8.008185|   -8.271480|   -8.010595|   -7.729077|   -8.874625|    1.889589|
|        4667|  6.8107e+00|   -7.831821|   -8.008864|   -8.272840|   -8.011823|   -7.730031|   -8.875478|    1.889590|
|        4668|  6.8106e+00|   -7.833138|   -8.009540|   -8.274233|   -8.013092|   -7.731041|   -8.876332|    1.889590|
|        4669|  6.8106e+00|   -7.834526|   -8.010214|   -8.275659|   -8.014403|   -7.732107|   -8.877186|    1.889591|
|        4670|  6.8105e+00|   -7.835985|   -8.010886|   -8.277116|   -8.015755|   -7.733229|   -8.878042|    1.889592|
|        4671|  6.8105e+00|   -7.837513|   -8.011558|   -8.278605|   -8.017149|   -7.734407|   -8.878897|    1.889593|
|        4672|  6.8105e+00|   -7.839110|   -8.012229|   -8.280123|   -8.018582|   -7.735641|   -8.879754|    1.889593|
|        4673|  6.8104e+00|   -7.840776|   -8.012899|   -8.281670|   -8.020056|   -7.736930|   -8.880610|    1.889594|
|        4674|  6.8104e+00|   -7.842510|   -8.013570|   -8.283245|   -8.021568|   -7.738275|   -8.881467|    1.889595|
|        4675|  6.8104e+00|   -7.844312|   -8.014240|   -8.284848|   -8.023118|   -7.739674|   -8.882323|    1.889595|
|        4676|  6.8104e+00|   -7.846181|   -8.014911|   -8.286476|   -8.024705|   -7.741128|   -8.883180|    1.889596|
|        4677|  6.8103e+00|   -7.848116|   -8.015581|   -8.288130|   -8.026328|   -7.742635|   -8.884036|    1.889597|
|        4678|  6.8103e+00|   -7.850116|   -8.016251|   -8.289808|   -8.027985|   -7.744196|   -8.884892|    1.889597|
|        4679|  6.8103e+00|   -7.852181|   -8.016920|   -8.291510|   -8.029676|   -7.745810|   -8.885747|    1.889598|
|        4680|  6.8102e+00|   -7.854311|   -8.017589|   -8.293233|   -8.031397|   -7.747476|   -8.886602|    1.889598|
|        4681|  6.8102e+00|   -7.856503|   -8.018256|   -8.294977|   -8.033148|   -7.749192|   -8.887456|    1.889599|
|        4682|  6.8101e+00|   -7.858756|   -8.018920|   -8.296741|   -8.034927|   -7.750959|   -8.888309|    1.889600|
|        4683|  6.8101e+00|   -7.861071|   -8.019582|   -8.298523|   -8.036731|   -7.752774|   -8.889161|    1.889600|
|        4684|  6.8101e+00|   -7.863445|   -8.020241|   -8.300323|   -8.038559|   -7.754638|   -8.890012|    1.889601|
|        4685|  6.8100e+00|   -7.865878|   -8.020895|   -8.302139|   -8.040407|   -7.756547|   -8.890863|    1.889601|
|        4686|  6.8100e+00|   -7.868368|   -8.021543|   -8.303970|   -8.042274|   -7.758503|   -8.891712|    1.889602|
|        4687|  6.8100e+00|   -7.870913|   -8.022185|   -8.305814|   -8.044156|   -7.760502|   -8.892559|    1.889602|
|        4688|  6.8099e+00|   -7.873513|   -8.022820|   -8.307670|   -8.046052|   -7.762543|   -8.893406|    1.889602|
|        4689|  6.8099e+00|   -7.876165|   -8.023445|   -8.309537|   -8.047957|   -7.764625|   -8.894251|    1.889603|
|        4690|  6.8099e+00|   -7.878869|   -8.024061|   -8.311413|   -8.049868|   -7.766746|   -8.895095|    1.889603|
|        4691|  6.8098e+00|   -7.881622|   -8.024665|   -8.313297|   -8.051783|   -7.768903|   -8.895937|    1.889604|
|        4692|  6.8098e+00|   -7.884422|   -8.025256|   -8.315188|   -8.053698|   -7.771096|   -8.896777|    1.889604|
|        4693|  6.8098e+00|   -7.887269|   -8.025833|   -8.317083|   -8.055610|   -7.773322|   -8.897616|    1.889604|
|        4694|  6.8098e+00|   -7.890159|   -8.026394|   -8.318980|   -8.057514|   -7.775579|   -8.898453|    1.889605|
|        4695|  6.8097e+00|   -7.893091|   -8.026938|   -8.320880|   -8.059406|   -7.777864|   -8.899289|    1.889605|
|        4696|  6.8097e+00|   -7.896062|   -8.027463|   -8.322778|   -8.061284|   -7.780175|   -8.900123|    1.889605|
|        4697|  6.8097e+00|   -7.899071|   -8.027966|   -8.324674|   -8.063142|   -7.782510|   -8.900955|    1.889606|
|        4698|  6.8096e+00|   -7.902114|   -8.028447|   -8.326565|   -8.064976|   -7.784864|   -8.901786|    1.889606|
|        4699|  6.8096e+00|   -7.905189|   -8.028904|   -8.328450|   -8.066782|   -7.787238|   -8.902614|    1.889606|
|        4700|  6.8096e+00|   -7.908295|   -8.029335|   -8.330327|   -8.068557|   -7.789626|   -8.903441|    1.889606|
|        4701|  6.8095e+00|   -7.911427|   -8.029738|   -8.332195|   -8.070295|   -7.792027|   -8.904267|    1.889606|
|        4702|  6.8096e+00|   -7.914584|   -8.030113|   -8.334052|   -8.071993|   -7.794438|   -8.905090|    1.889606|
|        4703|  6.8097e+00|   -7.917763|   -8.030457|   -8.335895|   -8.073646|   -7.796855|   -8.905912|    1.889607|
|        4704|  6.8097e+00|   -7.920960|   -8.030769|   -8.337722|   -8.075250|   -7.799275|   -8.906733|    1.889607|
|        4705|  6.8098e+00|   -7.924172|   -8.031048|   -8.339532|   -8.076801|   -7.801696|   -8.907551|    1.889607|
|        4706|  6.8098e+00|   -7.927397|   -8.031291|   -8.341323|   -8.078294|   -7.804112|   -8.908368|    1.889607|
|        4707|  6.8099e+00|   -7.930630|   -8.031497|   -8.343091|   -8.079725|   -7.806521|   -8.909184|    1.889607|
|        4708|  6.8099e+00|   -7.933869|   -8.031666|   -8.344834|   -8.081090|   -7.808920|   -8.909998|    1.889607|
|        4709|  6.8100e+00|   -7.937110|   -8.031795|   -8.346552|   -8.082385|   -7.811304|   -8.910811|    1.889607|
|        4710|  6.8100e+00|   -7.940350|   -8.031884|   -8.348240|   -8.083607|   -7.813671|   -8.911623|    1.889607|
|        4711|  6.8101e+00|   -7.943585|   -8.031931|   -8.349898|   -8.084751|   -7.816016|   -8.912433|    1.889607|
|        4712|  6.8101e+00|   -7.946811|   -8.031936|   -8.351522|   -8.085814|   -7.818335|   -8.913242|    1.889607|
|        4713|  6.8102e+00|   -7.950025|   -8.031898|   -8.353111|   -8.086794|   -7.820626|   -8.914049|    1.889607|
|        4714|  6.8102e+00|   -7.953223|   -8.031816|   -8.354663|   -8.087687|   -7.822885|   -8.914856|    1.889607|
|        4715|  6.8103e+00|   -7.956401|   -8.031689|   -8.356176|   -8.088490|   -7.825108|   -8.915661|    1.889606|
|        4716|  6.8103e+00|   -7.959557|   -8.031518|   -8.357647|   -8.089201|   -7.827292|   -8.916466|    1.889606|
|        4717|  6.8104e+00|   -7.962685|   -8.031301|   -8.359074|   -8.089819|   -7.829434|   -8.917269|    1.889606|
|        4718|  6.8104e+00|   -7.965782|   -8.031040|   -8.360457|   -8.090341|   -7.831529|   -8.918072|    1.889606|
|        4719|  6.8105e+00|   -7.968845|   -8.030734|   -8.361793|   -8.090767|   -7.833576|   -8.918874|    1.889606|
|        4720|  6.8105e+00|   -7.971869|   -8.030382|   -8.363079|   -8.091095|   -7.835570|   -8.919675|    1.889605|
|        4721|  6.8105e+00|   -7.974852|   -8.029987|   -8.364315|   -8.091324|   -7.837509|   -8.920476|    1.889605|
|        4722|  6.8106e+00|   -7.977789|   -8.029547|   -8.365499|   -8.091455|   -7.839390|   -8.921276|    1.889605|
|        4723|  6.8106e+00|   -7.980677|   -8.029063|   -8.366629|   -8.091487|   -7.841210|   -8.922076|    1.889604|
|        4724|  6.8107e+00|   -7.983512|   -8.028536|   -8.367703|   -8.091421|   -7.842966|   -8.922875|    1.889604|
|        4725|  6.8107e+00|   -7.986291|   -8.027968|   -8.368721|   -8.091257|   -7.844656|   -8.923675|    1.889604|
|        4726|  6.8108e+00|   -7.989011|   -8.027358|   -8.369680|   -8.090997|   -7.846278|   -8.924474|    1.889603|
|        4727|  6.8108e+00|   -7.991668|   -8.026707|   -8.370580|   -8.090642|   -7.847829|   -8.925274|    1.889603|
|        4728|  6.8109e+00|   -7.994260|   -8.026018|   -8.371420|   -8.090193|   -7.849308|   -8.926073|    1.889603|
|        4729|  6.8110e+00|   -7.996783|   -8.025292|   -8.372198|   -8.089654|   -7.850713|   -8.926873|    1.889602|
|        4730|  6.8110e+00|   -7.999236|   -8.024529|   -8.372914|   -8.089026|   -7.852044|   -8.927674|    1.889602|
|        4731|  6.8111e+00|   -8.001616|   -8.023732|   -8.373567|   -8.088313|   -7.853298|   -8.928475|    1.889601|

----------------------------- Solver Exit -------------------------------
All convergence criteria satisfied.
+-----------------------------------------------------------------------+
|      Convergence Field     |     Value    |   Criterion  |  Converged |
+-----------------------------------------------------------------------+
|                    rms[Rho]|      -8.00162|          < -8|         Yes|
+-----------------------------------------------------------------------+
-------------------------------------------------------------------------
+-----------------------------------------------------------------------+
|        File Writing Summary       |              Filename             |
+-----------------------------------------------------------------------+
|SU2 binary restart                 |restart_flow.dat                   |
|Paraview                           |flow.vtu                           |
|Paraview surface                   |surface_flow.vtu                   |
+-----------------------------------------------------------------------+

------------------------- Solver Postprocessing -------------------------
Deleted CNumerics container.
Deleted CIntegration container.
Deleted CSolver container.
Deleted CIteration container.
Deleted CInterface container.
Deleted CGeometry container.
Deleted CFreeFormDefBox class.
Deleted CSurfaceMovement class.
Deleted CVolumetricMovement class.
Deleted CConfig container.
Deleted nInst container.
Deleted COutput class.
-------------------------------------------------------------------------

------------------------- Exit Success (SU2_CFD) ------------------------


scontrol show job 1228486
JobId=1228486 JobName=m1.5_aoa40
   UserId=anthonyy(3152141) GroupId=anthonyy(3152141) MCS_label=N/A
   Priority=659243 Nice=0 Account=rrg-jphickey QOS=normal
   JobState=COMPLETING Reason=None Dependency=(null)
   Requeue=0 Restarts=0 BatchFlag=1 Reboot=0 ExitCode=0:0
   RunTime=09:06:24 TimeLimit=18:00:00 TimeMin=N/A
   SubmitTime=2026-03-25T02:35:45 EligibleTime=2026-03-25T02:35:45
   AccrueTime=2026-03-25T02:35:45
   StartTime=2026-03-25T17:02:01 EndTime=2026-03-26T02:08:25 Deadline=N/A
   SuspendTime=None SecsPreSuspend=0 LastSchedEval=2026-03-25T17:02:01 Scheduler=Main
   Partition=compute AllocNode:Sid=tri-login01:1156378
   ReqNodeList=(null) ExcNodeList=(null)
   NodeList=tri[1214-1215]
   BatchHost=tri1214
   NumNodes=2 NumCPUs=384 NumTasks=128 CPUs/Task=1 ReqB:S:C:T=0:0:*:*
   ReqTRES=cpu=384,mem=1534000M,node=2,billing=384
   AllocTRES=cpu=384,mem=1534000M,node=2,billing=384
   Socks/Node=* NtasksPerN:B:S:C=64:0:*:* CoreSpec=*
   MinCPUsNode=64 MinMemoryNode=0 MinTmpDiskNode=0
   Features=(null) DelayBoot=00:00:00
   OverSubscribe=NO Contiguous=0 Licenses=(null) LicensesAlloc=(null) Network=(null)
   Command=/scratch/anthonyy/reentry/orion/config/run.sh
   SubmitLine=SBATCH --comment /opt/slurm/bin/sbatch --export=NONE --get-user-env --job-name m1.5_aoa40 --nodes 2 --ntasks-per-node 64 --cpus-per-task 1 --mem 0 --time 18:00:00 --account rrg-jphickey --output orion_%j.out --error orion_%j.err --chdir /scratch/anthonyy/reentry/orion/cases/m1.5_aoa40 /scratch/anthonyy/reentry/orion/config/run.sh /scratch/anthonyy/reentry/orion/config/generated/m1.5_aoa40.cfg --export=NONE --get-user-env --job-name m1.5_aoa40 --nodes 2 --ntasks-per-node 64 --cpus-per-task 1 --mem 0 --time 18:00:00 --account rrg-jphickey --output orion_%j.out --error orion_%j.err --chdir /scratch/anthonyy/reentry/orion/cases/m1.5_aoa40 /scratch/anthonyy/reentry/orion/config/run.sh /scratch/anthonyy/reentry/orion/config/generated/m1.5_aoa40.cfg
   WorkDir=/scratch/anthonyy/reentry/orion/cases/m1.5_aoa40
   Comment=/opt/slurm/bin/sbatch --export=NONE --get-user-env --job-name m1.5_aoa40 --nodes 2 --ntasks-per-node 64 --cpus-per-task 1 --mem 0 --time 18:00:00 --account rrg-jphickey --output orion_%j.out --error orion_%j.err --chdir /scratch/anthonyy/reentry/orion/cases/m1.5_aoa40 /scratch/anthonyy/reentry/orion/config/run.sh /scratch/anthonyy/reentry/orion/config/generated/m1.5_aoa40.cfg
   StdErr=/scratch/anthonyy/reentry/orion/cases/m1.5_aoa40/orion_1228486.err
   StdIn=/dev/null
   StdOut=/scratch/anthonyy/reentry/orion/cases/m1.5_aoa40/orion_1228486.out
   TresPerTask=cpu=1

sacct -j 1228486
JobID           JobName    Account    Elapsed  MaxVMSize     MaxRSS  SystemCPU    UserCPU ExitCode 
------------ ---------- ---------- ---------- ---------- ---------- ---------- ---------- -------- 
1228486      m1.5_aoa40 rrg-jphic+   09:06:24                         06:02:20 47-17:15:+      0:0 
1228486.bat+      batch rrg-jphic+   09:06:24          0     24420K  00:00.190  00:00.609      0:0 
1228486.ext+     extern rrg-jphic+   09:06:24                         00:00:00   00:00:00      0:0 
1228486.0       SU2_CFD rrg-jphic+   09:06:20          0  10754680K   06:02:20 47-17:15:+      0:0 

