Nodes:  tri[0978,1007]
Tasks:  128
NPN:    64
Config: /scratch/anthonyy/reentry/orion/config/generated/m3_coarse.cfg

-------------------------------------------------------------------------
|    ___ _   _ ___                                                      |
|   / __| | | |_  )   Release 7.5.1 "Blackbird"                         |
|   \__ \ |_| |/ /                                                      |
|   |___/\___//___|   Suite (Computational Fluid Dynamics Code)         |
|                                                                       |
-------------------------------------------------------------------------
| SU2 Project Website: https://su2code.github.io                        |
|                                                                       |
| The SU2 Project is maintained by the SU2 Foundation                   |
| (http://su2foundation.org)                                            |
-------------------------------------------------------------------------
| Copyright 2012-2023, SU2 Contributors                                 |
|                                                                       |
| SU2 is free software; you can redistribute it and/or                  |
| modify it under the terms of the GNU Lesser General Public            |
| License as published by the Free Software Foundation; either          |
| version 2.1 of the License, or (at your option) any later version.    |
|                                                                       |
| SU2 is distributed in the hope that it will be useful,                |
| but WITHOUT ANY WARRANTY; without even the implied warranty of        |
| MERCHANTABILITY or FITNESS FOR A PARTICULAR PURPOSE. See the GNU      |
| Lesser General Public License for more details.                       |
|                                                                       |
| You should have received a copy of the GNU Lesser General Public      |
| License along with SU2. If not, see <http://www.gnu.org/licenses/>.   |
-------------------------------------------------------------------------

Parsing config file for zone 0

----------------- Physical Case Definition ( Zone 0 ) -------------------
Compressible RANS equations.
Turbulence model: Spalart-Allmaras-noft2
Hybrid RANS/LES: No Hybrid RANS/LES
Mach number: 3.
Angle of attack (AoA): 0 deg, and angle of sideslip (AoS): 0 deg.
Reynolds number: 3.43114e+08. Reference length 5.
No restart solution, use the values at infinity (freestream).
Non-Dimensional simulation (V=1.0, Rho=1.0, T=1.0 at the farfield).
The reference area will be computed using y(2D) or z(3D) projection.
The semi-span will be computed using the max y(3D) value.
The reference length is 0.64607 m.
Reference origin for moment evaluation is (0.25, 0, 0).
Surface(s) where the force coefficients are evaluated: ORION_SURFACE.

Input mesh file name: ../../mesh/course.su2

--------------- Space Numerical Integration ( Zone 0 ) ------------------
Jameson-Schmidt-Turkel scheme (2nd order in space) for the flow inviscid terms.
JST viscous coefficients (2nd & 4th): 0.5, 0.02.
The method includes a grid stretching correction (p = 0.3).
Scalar upwind solver for the turbulence model.
First order integration in space.
Average of gradients with correction (viscous flow terms).
Average of gradients with correction (viscous turbulence terms).
Gradient for upwind reconstruction: Green-Gauss.
Gradient for viscous and source terms: Green-Gauss.

--------------- Time Numerical Integration  ( Zone 0 ) ------------------
Local time stepping (steady state simulation).
Euler implicit method for the flow equations.
FGMRES is used for solving the linear system.
Using a ILU(0) preconditioning.
Convergence criteria of the linear solver: 1e-06.
Max number of linear iterations: 100.
CFL adaptation. Factor down: 0.5, factor up: 1.2,
                lower limit: 0.1, upper limit: 3,
                acceptable linear residual: 0.001.
Courant-Friedrichs-Lewy number:        1
Euler implicit time integration for the turbulence model.

------------------ Convergence Criteria  ( Zone 0 ) ---------------------
Maximum number of solver subiterations: 999999.
Begin convergence monitoring at iteration 5.
Residual minimum value: 1e-8.
Cauchy series min. value: 1e-10.
Number of Cauchy elements: 100.
Begin windowed time average at iteration 0.

-------------------- Output Information ( Zone 0 ) ----------------------
File writing frequency: 
+------------------------------------+
|                     File| Frequency|
+------------------------------------+
|                  RESTART|       150|
|                 PARAVIEW|       150|
|         SURFACE_PARAVIEW|       150|
+------------------------------------+
Writing the convergence history file every 1 inner iterations.
Writing the screen convergence history every 1 inner iterations.
The tabular file format is CSV (.csv).
Convergence history file name: history.
Forces breakdown file name: forces_breakdown.dat.
Surface file name: surface_flow.
Volume file name: flow.
Restart file name: restart_flow.

------------- Config File Boundary Information ( Zone 0 ) ---------------
+-----------------------------------------------------------------------+
|                        Marker Type|                        Marker Name|
+-----------------------------------------------------------------------+
|                          Far-field|                           FARFIELD|
+-----------------------------------------------------------------------+
|                     Heat flux wall|                      ORION_SURFACE|
+-----------------------------------------------------------------------+

-------------------- Output Preprocessing ( Zone 0 ) --------------------

WARNING: SURFACE_PRESSURE_DROP can only be computed for at least 2 surfaces (outlet, inlet, ...)

Screen output fields: INNER_ITER, WALL_TIME, RMS_DENSITY, RMS_MOMENTUM-X, RMS_MOMENTUM-Y, RMS_MOMENTUM-Z, RMS_ENERGY, RMS_NU_TILDE, DRAG
History output group(s): ITER, RMS_RES
Convergence field(s): RMS_DENSITY
Warning: No (valid) fields chosen for time convergence monitoring. Time convergence monitoring inactive.
Volume output fields: MACH, PRESSURE, TEMPERATURE, DENSITY, HEAT_FLUX, Y_PLUS, COORDINATES, SOLUTION

------------------- Geometry Preprocessing ( Zone 0 ) -------------------
Three dimensional problem.
11720736 grid points before partitioning.
30680382 volume elements before partitioning.
2 surface markers.
790 boundary elements in index 0 (Marker = FARFIELD).
360672 boundary elements in index 1 (Marker = ORION_SURFACE).
Executing the partitioning functions.
Building the graph adjacency structure.
Calling ParMETIS... graph partitioning complete (1579501 edge cuts).
Distributing ParMETIS coloring.
Rebalancing vertices.
Rebalancing volume element connectivity.
Rebalancing markers and surface elements.
13574281 vertices including ghost points. 
32958004 interior elements including halo cells. 
11628872 tetrahedra.
21220846 prisms.
108286 pyramids.
Establishing MPI communication patterns.
Setting point connectivity.
Renumbering points (Reverse Cuthill McKee Ordering).
Recomputing point connectivity.
Setting element connectivity.
Checking the numerical grid orientation.
All volume elements are correctly orientend.
All surface elements are correctly orientend.
Identifying edges and vertices.
Setting the control volume structure.
Volume of the computational grid: 591575.
Searching for the closest normal neighbors to the surfaces.
Storing a mapping from global to local point index.
Compute the surface curvature.
Max K: 109.201. Mean K: 3.88946. Standard deviation K: 7.33798.
Checking for periodicity.
Computing mesh quality statistics for the dual control volumes.
+--------------------------------------------------------------+
|           Mesh Quality Metric|        Minimum|        Maximum|
+--------------------------------------------------------------+
|    Orthogonality Angle (deg.)|        52.6472|             90|
|     CV Face Area Aspect Ratio|        1.03802|         193380|
|           CV Sub-Volume Ratio|        1.00749|         34.476|
+--------------------------------------------------------------+
Finding max control volume width.
Communicating number of neighbors.
Reference area = 11.5305 m^2.
Semi-span length = 2.49994 m.
Wetted area = 57.8992 m^2.
Area projection in the x-plane = 19.6317 m^2, y-plane = 11.5307 m^2, z-plane = 11.5305 m^2.
Max. coordinate in the x-direction = 2.575 m, y-direction = 2.49994 m, z-direction = 2.49989 m.
Min. coordinate in the x-direction = -0.71 m, y-direction = -2.49995 m, z-direction = -2.49995 m.
Computing wall distances.

-------------------- Solver Preprocessing ( Zone 0 ) --------------------
Viscous flow: Computing pressure using the ideal gas law
based on the free-stream temperature and a density computed
from the Reynolds number.
Force coefficients computed using free-stream values.

-- Models:
+------------------------------------------------------------------------------+
|          Viscosity Model|        Conductivity Model|              Fluid Model|
+------------------------------------------------------------------------------+
|               SUTHERLAND|          CONSTANT_PRANDTL|             STANDARD_AIR|
+------------------------------------------------------------------------------+
-- Fluid properties:
+------------------------------------------------------------------------------+
|                  Name|    Dim. value|    Ref. value|      Unit|Non-dim. value|
+------------------------------------------------------------------------------+
|        Ref. Viscosity|     1.716e-05|       1227.87|   N.s/m^2|   1.39755e-08|
|      Sutherland Temp.|        273.15|        288.15|         K|      0.947944|
|     Sutherland Const.|         110.4|        288.15|         K|      0.383134|
+------------------------------------------------------------------------------+
|        Prandtl (Lam.)|             -|             -|         -|          0.72|
|       Prandtl (Turb.)|             -|             -|         -|           0.9|
+------------------------------------------------------------------------------+
|          Gas Constant|       287.058|       3616.93|  N.m/kg.K|     0.0793651|
|      Spec. Heat Ratio|             -|             -|         -|           1.4|
+------------------------------------------------------------------------------+
-- Initial and free-stream conditions:
+------------------------------------------------------------------------------+
|                  Name|    Dim. value|    Ref. value|      Unit|Non-dim. value|
+------------------------------------------------------------------------------+
|       Static Pressure|       99485.6|   1.25352e+06|        Pa|     0.0793651|
|               Density|       1.20274|       1.20274|    kg/m^3|             1|
|           Temperature|        288.15|        288.15|         K|             1|
|          Total Energy|        727899|   1.04222e+06|   m^2/s^2|      0.698413|
|            Velocity-X|       1020.89|       1020.89|       m/s|             1|
|            Velocity-Y|             0|       1020.89|       m/s|             0|
|            Velocity-Z|             0|       1020.89|       m/s|             0|
|    Velocity Magnitude|       1020.89|       1020.89|       m/s|             1|
+------------------------------------------------------------------------------+
|             Viscosity|    1.7893e-05|       1227.87|   N.s/m^2|   1.45724e-08|
|          Conductivity|             -|   4.44111e+06|   W/m^2.K|             -|
|     Turb. Kin. Energy|       3908.32|   1.04222e+06|   m^2/s^2|       0.00375|
|     Spec. Dissipation|   2.62712e+07|       1020.89|       1/s|       25733.6|
+------------------------------------------------------------------------------+
|           Mach Number|             -|             -|         -|             3|
|       Reynolds Number|             -|             -|         -|   3.43114e+08|
+------------------------------------------------------------------------------+
Initialize Jacobian structure (Navier-Stokes). MG level: 0.
Initialize Jacobian structure (SA model).

------------------- Numerics Preprocessing ( Zone 0 ) -------------------

----------------- Integration Preprocessing ( Zone 0 ) ------------------

------------------- Iteration Preprocessing ( Zone 0 ) ------------------
Euler/Navier-Stokes/RANS fluid iteration.

------------------------------ Begin Solver -----------------------------

Simulation Run using the Single-zone Driver
WARNING: SU2 was not compiled for an AVX-capable architecture. Performance could be better,
         see https://su2code.github.io/docs_v7/Build-SU2-Linux-MacOS/#compiler-optimizations
+--------------------------------------------------------------------------------------------------------------------+
|  Inner_Iter|   Time(sec)|    rms[Rho]|   rms[RhoU]|   rms[RhoV]|   rms[RhoW]|   rms[RhoE]|     rms[nu]|          CD|
+--------------------------------------------------------------------------------------------------------------------+
|           0|  1.3668e+00|   -4.535266|  -15.613158|  -16.683434|  -16.690292|   -4.644411|  -12.069099|    0.784471|
|           1|  1.2910e+00|   -4.683406|   -4.716570|   -5.724233|   -5.723911|   -4.798684|  -12.088254|    1.117402|
|           2|  1.2719e+00|   -4.684111|   -4.774835|   -5.810659|   -5.810350|   -4.784909|  -12.249591|    1.464696|
|           3|  1.2814e+00|   -4.674818|   -4.820880|   -5.819038|   -5.818824|   -4.764066|  -12.371725|    1.842349|
|           4|  1.2776e+00|   -4.661245|   -4.874860|   -5.786193|   -5.786059|   -4.740588|  -12.453213|    2.265254|
|           5|  1.2914e+00|   -4.648598|   -4.949328|   -5.743024|   -5.742900|   -4.719455|  -12.515588|    2.746756|
|           6|  1.3025e+00|   -4.639942|   -5.043080|   -5.694626|   -5.694504|   -4.704769|  -12.560934|    3.299218|
|           7|  1.3238e+00|   -4.638232|   -5.120319|   -5.630993|   -5.630980|   -4.700731|  -12.590043|    3.870324|
|           8|  1.3432e+00|   -4.653798|   -5.129609|   -5.555148|   -5.555228|   -4.718019|  -12.589602|    4.494576|
|           9|  1.3580e+00|   -4.692973|   -5.084271|   -5.469843|   -5.469914|   -4.760959|  -12.560342|    5.130532|
|          10|  1.3747e+00|   -4.756549|   -5.014198|   -5.383488|   -5.383488|   -4.834513|  -12.518136|    5.667678|
|          11|  1.3904e+00|   -4.795802|   -4.939949|   -5.309093|   -5.309101|   -4.882025|  -12.505726|    5.896317|
|          12|  1.4014e+00|   -4.755840|   -4.889805|   -5.265760|   -5.265806|   -4.819895|  -12.481051|    5.678482|
|          13|  1.4111e+00|   -4.684736|   -4.890782|   -5.252303|   -5.252375|   -4.722596|  -12.452389|    5.013706|
|          14|  1.4168e+00|   -4.621392|   -4.957583|   -5.251504|   -5.251534|   -4.645039|  -12.451172|    4.127439|
|          15|  1.4196e+00|   -4.584662|   -5.069355|   -5.222253|   -5.222213|   -4.605098|  -12.465532|    3.314805|
|          16|  1.4266e+00|   -4.582454|   -5.096035|   -5.184328|   -5.184274|   -4.604156|  -12.446642|    2.683901|
|          17|  1.4331e+00|   -4.609422|   -5.036171|   -5.172786|   -5.172740|   -4.631630|  -12.385787|    2.363481|
|          18|  1.4375e+00|   -4.656094|   -4.997652|   -5.193572|   -5.193546|   -4.681637|  -12.331760|    2.375900|
|          19|  1.4447e+00|   -4.695557|   -4.991034|   -5.221326|   -5.221300|   -4.732569|  -12.317140|    2.624050|
|          20|  1.4510e+00|   -4.709062|   -5.015194|   -5.243797|   -5.243767|   -4.752867|  -12.327592|    2.984541|
|          21|  1.4555e+00|   -4.687737|   -5.048303|   -5.242344|   -5.242310|   -4.725251|  -12.328701|    3.349911|
|          22|  1.4618e+00|   -4.680738|   -5.064422|   -5.249956|   -5.249933|   -4.717324|  -12.330172|    3.650647|
|          23|  1.4611e+00|   -4.691767|   -5.088302|   -5.264487|   -5.264490|   -4.728449|  -12.330914|    3.832971|
|          24|  1.4583e+00|   -4.705816|   -5.136948|   -5.283981|   -5.283986|   -4.742010|  -12.305016|    3.877478|
|          25|  1.4566e+00|   -4.727574|   -5.161884|   -5.297819|   -5.297806|   -4.771545|  -12.265508|    3.817608|
|          26|  1.4574e+00|   -4.744624|   -5.116220|   -5.289622|   -5.289593|   -4.799361|  -12.239098|    3.726807|
|          27|  1.4596e+00|   -4.737444|   -5.069304|   -5.264815|   -5.264781|   -4.792362|  -12.232570|    3.669057|
|          28|  1.4581e+00|   -4.709363|   -5.050776|   -5.244312|   -5.244310|   -4.757588|  -12.234005|    3.671951|
|          29|  1.4565e+00|   -4.685738|   -5.060403|   -5.239501|   -5.239507|   -4.727166|  -12.240318|    3.728714|
|          30|  1.4550e+00|   -4.675857|   -5.098416|   -5.246833|   -5.246847|   -4.709857|  -12.251384|    3.810385|
|          31|  1.4546e+00|   -4.683656|   -5.149814|   -5.265038|   -5.265031|   -4.714502|  -12.237946|    3.882385|
|          32|  1.4522e+00|   -4.706922|   -5.159253|   -5.279205|   -5.279173|   -4.744575|  -12.197278|    3.918670|
|          33|  1.4502e+00|   -4.729349|   -5.101698|   -5.273907|   -5.273862|   -4.779512|  -12.164679|    3.911006|
|          34|  1.4498e+00|   -4.727963|   -5.047432|   -5.253405|   -5.253369|   -4.781900|  -12.156321|    3.870829|
|          35|  1.4481e+00|   -4.700676|   -5.033603|   -5.236039|   -5.236039|   -4.747707|  -12.161861|    3.821597|
|          36|  1.4463e+00|   -4.674050|   -5.054350|   -5.232093|   -5.232109|   -4.712034|  -12.172276|    3.785729|
|          37|  1.4450e+00|   -4.665772|   -5.099524|   -5.243461|   -5.243464|   -4.696105|  -12.192122|    3.775058|
|          38|  1.4431e+00|   -4.680265|   -5.145271|   -5.267716|   -5.267748|   -4.709265|  -12.192308|    3.788381|
|          39|  1.4420e+00|   -4.709729|   -5.138007|   -5.282055|   -5.282061|   -4.747546|  -12.155052|    3.815227|
|          40|  1.4410e+00|   -4.731163|   -5.072542|   -5.271086|   -5.271091|   -4.781889|  -12.120656|    3.842698|
|          41|  1.4400e+00|   -4.722411|   -5.016503|   -5.248403|   -5.248422|   -4.775897|  -12.109548|    3.861549|
|          42|  1.4384e+00|   -4.689584|   -5.002198|   -5.232035|   -5.232043|   -4.735342|  -12.114367|    3.868928|
|          43|  1.4374e+00|   -4.660286|   -5.018660|   -5.228581|   -5.228580|   -4.696440|  -12.122746|    3.867755|
|          44|  1.4376e+00|   -4.652238|   -5.045578|   -5.242593|   -5.242584|   -4.680923|  -12.140477|    3.863740|
|          45|  1.4386e+00|   -4.668538|   -5.058117|   -5.268605|   -5.268632|   -4.696163|  -12.147625|    3.861807|
|          46|  1.4388e+00|   -4.698107|   -5.027830|   -5.280531|   -5.280540|   -4.733977|  -12.115842|    3.863907|
|          47|  1.4378e+00|   -4.715110|   -4.965857|   -5.265759|   -5.265753|   -4.762551|  -12.078404|    3.869066|
|          48|  1.4369e+00|   -4.699835|   -4.912750|   -5.241402|   -5.241421|   -4.749704|  -12.058187|    3.874973|
|          49|  1.4366e+00|   -4.662652|   -4.888344|   -5.223670|   -5.223633|   -4.705337|  -12.055399|    3.879776|
|          50|  1.4371e+00|   -4.630456|   -4.882941|   -5.219118|   -5.219093|   -4.664440|  -12.059453|    3.883056|
|          51|  1.4374e+00|   -4.619846|   -4.879524|   -5.232668|   -5.232619|   -4.647638|  -12.070262|    3.885649|
|          52|  1.4376e+00|   -4.631583|   -4.865880|   -5.255628|   -5.255621|   -4.658890|  -12.078326|    3.888697|
|          53|  1.4381e+00|   -4.653566|   -4.835560|   -5.262759|   -5.262687|   -4.688112|  -12.056407|    3.892646|
|          54|  1.4415e+00|   -4.662548|   -4.794219|   -5.244706|   -5.244615|   -4.707191|  -12.021605|    3.896881|
|          55|  1.4429e+00|   -4.644442|   -4.757131|   -5.218663|   -5.218539|   -4.692673|  -11.995571|    3.900185|
|          56|  1.4440e+00|   -4.609573|   -4.734875|   -5.198854|   -5.198668|   -4.653407|  -11.984963|    3.901643|
|          57|  1.4469e+00|   -4.579056|   -4.724367|   -5.191634|   -5.191461|   -4.616563|  -11.985246|    3.901349|
|          58|  1.4486e+00|   -4.566667|   -4.716558|   -5.200777|   -5.200604|   -4.600050|  -11.991673|    3.900459|
|          59|  1.4504e+00|   -4.573064|   -4.704738|   -5.217274|   -5.217120|   -4.607179|  -12.000315|    3.900572|
|          60|  1.4520e+00|   -4.588224|   -4.686050|   -5.220397|   -5.220238|   -4.629320|  -11.990106|    3.902823|
|          61|  1.4550e+00|   -4.594132|   -4.662264|   -5.203448|   -5.203244|   -4.644502|  -11.964568|    3.907218|
|          62|  1.4567e+00|   -4.580260|   -4.640084|   -5.179902|   -5.179713|   -4.634897|  -11.939996|    3.912580|
|          63|  1.4586e+00|   -4.553287|   -4.626054|   -5.161468|   -5.161245|   -4.605154|  -11.926218|    3.917163|
|          64|  1.4607e+00|   -4.528621|   -4.620223|   -5.154226|   -5.154030|   -4.575357|  -11.925769|    3.919579|
|          65|  1.4624e+00|   -4.517969|   -4.617522|   -5.161049|   -5.160926|   -4.561536|  -11.932645|    3.919528|
|          66|  1.4624e+00|   -4.522838|   -4.613073|   -5.174476|   -5.174424|   -4.567602|  -11.943235|    3.917941|
|          67|  1.4622e+00|   -4.536174|   -4.604596|   -5.178243|   -5.178255|   -4.587578|  -11.942577|    3.916470|
|          68|  1.4626e+00|   -4.543830|   -4.592674|   -5.166514|   -5.166492|   -4.604118|  -11.926843|    3.916638|
|          69|  1.4625e+00|   -4.536324|   -4.581095|   -5.148625|   -5.148574|   -4.601406|  -11.906766|    3.919083|
|          70|  1.4649e+00|   -4.517185|   -4.574628|   -5.134215|   -5.134128|   -4.580455|  -11.892249|    3.923281|
|          71|  1.4659e+00|   -4.498184|   -4.574755|   -5.129455|   -5.129405|   -4.556779|  -11.891277|    3.927872|
|          72|  1.4657e+00|   -4.489983|   -4.578297|   -5.137117|   -5.137203|   -4.545669|  -11.899436|    3.931372|
|          73|  1.4656e+00|   -4.495123|   -4.580805|   -5.151167|   -5.151302|   -4.552126|  -11.911730|    3.932916|
|          74|  1.4653e+00|   -4.508833|   -4.579819|   -5.157990|   -5.158145|   -4.572466|  -11.917521|    3.932638|
|          75|  1.4655e+00|   -4.519509|   -4.575409|   -5.151373|   -5.151478|   -4.592328|  -11.908926|    3.931534|
|          76|  1.4653e+00|   -4.517453|   -4.570290|   -5.137872|   -5.137888|   -4.595610|  -11.892927|    3.930913|
|          77|  1.4651e+00|   -4.504046|   -4.568452|   -5.126155|   -5.126176|   -4.580448|  -11.878635|    3.931736|
|          78|  1.4654e+00|   -4.488988|   -4.572315|   -5.122624|   -5.122694|   -4.559811|  -11.876457|    3.934180|
|          79|  1.4654e+00|   -4.482557|   -4.579928|   -5.130221|   -5.130387|   -4.549141|  -11.885608|    3.937622|
|          80|  1.4652e+00|   -4.488337|   -4.586731|   -5.143932|   -5.144112|   -4.554686|  -11.900025|    3.941007|
|          81|  1.4658e+00|   -4.503335|   -4.589585|   -5.151542|   -5.151673|   -4.574672|  -11.911180|    3.943397|
|          82|  1.4663e+00|   -4.517470|   -4.588213|   -5.146422|   -5.146475|   -4.596942|  -11.908432|    3.944413|
|          83|  1.4667e+00|   -4.519863|   -4.584981|   -5.133874|   -5.133878|   -4.604478|  -11.895359|    3.944362|
|          84|  1.4664e+00|   -4.509633|   -4.583521|   -5.122267|   -5.122255|   -4.592488|  -11.880214|    3.944023|
|          85|  1.4662e+00|   -4.495293|   -4.587076|   -5.118004|   -5.118051|   -4.572157|  -11.874735|    3.944226|
|          86|  1.4660e+00|   -4.487412|   -4.594977|   -5.124815|   -5.124916|   -4.559455|  -11.881852|    3.945447|
|          87|  1.4662e+00|   -4.490655|   -4.602853|   -5.138498|   -5.138625|   -4.561876|  -11.895826|    3.947618|
|          88|  1.4659e+00|   -4.503619|   -4.606974|   -5.148082|   -5.148174|   -4.579265|  -11.909939|    3.950212|
|          89|  1.4656e+00|   -4.518254|   -4.606868|   -5.146113|   -5.146135|   -4.602190|  -11.912446|    3.952548|
|          90|  1.4653e+00|   -4.523466|   -4.604741|   -5.135658|   -5.135631|   -4.613627|  -11.902829|    3.954132|
|          91|  1.4651e+00|   -4.516163|   -4.603799|   -5.124293|   -5.124263|   -4.605385|  -11.888269|    3.954874|
|          92|  1.4649e+00|   -4.503333|   -4.607612|   -5.118741|   -5.118744|   -4.586244|  -11.880044|    3.955083|
|          93|  1.4648e+00|   -4.495145|   -4.616725|   -5.123487|   -5.123583|   -4.571980|  -11.883770|    3.955281|
|          94|  1.4646e+00|   -4.497091|   -4.627100|   -5.135549|   -5.135650|   -4.571511|  -11.895325|    3.955921|
|          95|  1.4642e+00|   -4.508916|   -4.633738|   -5.145229|   -5.145293|   -4.585996|  -11.908746|    3.957181|
|          96|  1.4639e+00|   -4.524492|   -4.635149|   -5.144872|   -5.144856|   -4.608916|  -11.912755|    3.958908|
|          97|  1.4636e+00|   -4.532504|   -4.633205|   -5.135869|   -5.135764|   -4.623897|  -11.903768|    3.960727|
|          98|  1.4632e+00|   -4.527227|   -4.630834|   -5.124567|   -5.124430|   -4.619067|  -11.888353|    3.962248|
|          99|  1.4629e+00|   -4.514203|   -4.631544|   -5.117643|   -5.117544|   -4.600295|  -11.876375|    3.963255|
|         100|  1.4624e+00|   -4.503386|   -4.637069|   -5.119931|   -5.119874|   -4.582744|  -11.874852|    3.963789|
|         101|  1.4593e+00|   -4.501233|   -4.644226|   -5.129644|   -5.129610|   -4.576805|  -11.869261|    3.964124|
|         102|  1.4544e+00|   -4.494322|   -4.647378|   -5.126577|   -5.126521|   -4.566510|  -11.860288|    3.964327|
|         103|  1.4483e+00|   -4.486179|   -4.647791|   -5.121107|   -5.121031|   -4.554969|  -11.859514|    3.964365|
|         104|  1.4422e+00|   -4.484752|   -4.647651|   -5.120082|   -5.120002|   -4.553041|  -11.857738|    3.964408|
|         105|  1.4364e+00|   -4.483244|   -4.647369|   -5.118952|   -5.118868|   -4.551026|  -11.856026|    3.964457|
|         106|  1.4306e+00|   -4.481724|   -4.646858|   -5.117740|   -5.117653|   -4.549049|  -11.854568|    3.964515|
|         107|  1.4249e+00|   -4.480317|   -4.645982|   -5.116495|   -5.116404|   -4.547313|  -11.853642|    3.964580|
|         108|  1.4200e+00|   -4.479239|   -4.644564|   -5.115298|   -5.115205|   -4.546189|  -11.853627|    3.964654|
|         109|  1.4151e+00|   -4.478843|   -4.642355|   -5.114254|   -5.114157|   -4.546231|  -11.854987|    3.964736|
|         110|  1.4105e+00|   -4.479638|   -4.639070|   -5.113493|   -5.113390|   -4.548246|  -11.858177|    3.964828|
|         111|  1.4064e+00|   -4.482254|   -4.634479|   -5.113142|   -5.113029|   -4.553249|  -11.863387|    3.964929|
|         112|  1.4024e+00|   -4.487405|   -4.628520|   -5.113202|   -5.113080|   -4.562455|  -11.870136|    3.965043|
|         113|  1.3990e+00|   -4.495541|   -4.621462|   -5.113362|   -5.113226|   -4.576611|  -11.876275|    3.965174|
|         114|  1.3956e+00|   -4.505984|   -4.614131|   -5.112826|   -5.112661|   -4.594477|  -11.877764|    3.965337|
|         115|  1.3929e+00|   -4.515495|   -4.607866|   -5.110076|   -5.109871|   -4.610217|  -11.869821|    3.965557|
|         116|  1.3904e+00|   -4.517327|   -4.604188|   -5.103237|   -5.102990|   -4.611893|  -11.849376|    3.965887|
|         117|  1.3886e+00|   -4.504688|   -4.604152|   -5.091319|   -5.091057|   -4.589324|  -11.817719|    3.966413|
|         118|  1.3870e+00|   -4.480757|   -4.607678|   -5.077017|   -5.076763|   -4.551263|  -11.790189|    3.967253|
|         119|  1.3858e+00|   -4.462089|   -4.612017|   -5.066998|   -5.066751|   -4.523932|  -11.798212|    3.968512|
|         120|  1.3848e+00|   -4.459919|   -4.614423|   -5.064504|   -5.064203|   -4.522576|  -11.826534|    3.970153|
|         121|  1.3845e+00|   -4.464202|   -4.614173|   -5.063878|   -5.063438|   -4.531280|  -11.836019|    3.971818|
|         122|  1.3849e+00|   -4.461649|   -4.609809|   -5.060766|   -5.060180|   -4.528768|  -11.832765|    3.972886|
|         123|  1.3846e+00|   -4.456882|   -4.600568|   -5.058902|   -5.058192|   -4.521491|  -11.836753|    3.973216|
|         124|  1.3843e+00|   -4.456464|   -4.587942|   -5.058439|   -5.057489|   -4.519228|  -11.842357|    3.973292|
|         125|  1.3840e+00|   -4.460063|   -4.571811|   -5.055277|   -5.053929|   -4.521828|  -11.847887|    3.973928|
|         126|  1.3841e+00|   -4.464041|   -4.551761|   -5.045558|   -5.043779|   -4.524788|  -11.849869|    3.976007|
|         127|  1.3844e+00|   -4.463141|   -4.528816|   -5.028394|   -5.026151|   -4.521696|  -11.841384|    3.980224|
|         128|  1.3844e+00|   -4.453003|   -4.504602|   -5.007129|   -5.004352|   -4.507294|  -11.827205|    3.986904|
|         129|  1.3841e+00|   -4.436269|   -4.480261|   -4.985731|   -4.982368|   -4.485753|  -11.812695|    3.995937|
|         130|  1.3845e+00|   -4.416967|   -4.456284|   -4.963755|   -4.959747|   -4.462771|  -11.800711|    4.006820|
|         131|  1.3847e+00|   -4.396730|   -4.432582|   -4.940068|   -4.935373|   -4.440604|  -11.789645|    4.018743|
|         132|  1.3848e+00|   -4.376578|   -4.408545|   -4.916388|   -4.910972|   -4.419879|  -11.777693|    4.030711|
|         133|  1.3850e+00|   -4.357613|   -4.383685|   -4.893386|   -4.887231|   -4.401719|  -11.765469|    4.041663|
|         134|  1.3852e+00|   -4.339120|   -4.357913|   -4.869050|   -4.862168|   -4.386095|  -11.753448|    4.050594|
|         135|  1.3855e+00|   -4.318466|   -4.331572|   -4.842749|   -4.835189|   -4.370118|  -11.736188|    4.056690|
|         136|  1.3858e+00|   -4.293423|   -4.305197|   -4.815486|   -4.807317|   -4.350462|  -11.716742|    4.059466|
|         137|  1.3856e+00|   -4.265277|   -4.279546|   -4.789225|   -4.780457|   -4.328104|  -11.696852|    4.058884|
|         138|  1.3853e+00|   -4.235563|   -4.255165|   -4.764130|   -4.754780|   -4.304270|  -11.677393|    4.055390|
|         139|  1.3852e+00|   -4.206491|   -4.231903|   -4.740263|   -4.730343|   -4.281750|  -11.661565|    4.049880|
|         140|  1.3851e+00|   -4.179397|   -4.209303|   -4.718023|   -4.707535|   -4.262565|  -11.646413|    4.043577|
|         141|  1.3808e+00|   -4.153657|   -4.186983|   -4.696680|   -4.685659|   -4.246125|  -11.671427|    4.043403|
|         142|  1.3764e+00|   -4.152388|   -4.186268|   -4.696031|   -4.685021|   -4.245104|  -11.669361|    4.043191|
|         143|  1.3726e+00|   -4.150899|   -4.185413|   -4.695261|   -4.684264|   -4.243927|  -11.666965|    4.042934|
|         144|  1.3693e+00|   -4.149165|   -4.184394|   -4.694349|   -4.683367|   -4.242589|  -11.664231|    4.042620|
|         145|  1.3658e+00|   -4.147162|   -4.183177|   -4.693273|   -4.682309|   -4.241098|  -11.661179|    4.042238|
|         146|  1.3622e+00|   -4.144871|   -4.181726|   -4.692005|   -4.681063|   -4.239477|  -11.657866|    4.041772|
|         147|  1.3585e+00|   -4.142281|   -4.179995|   -4.690517|   -4.679599|   -4.237771|  -11.654390|    4.041204|
|         148|  1.3555e+00|   -4.139389|   -4.177931|   -4.688772|   -4.677883|   -4.236071|  -11.650880|    4.040513|
|         149|  1.3523e+00|   -4.136219|   -4.175474|   -4.686727|   -4.675872|   -4.234506|  -11.647419|    4.039678|
|         150|  1.3497e+00|   -4.132781|   -4.172556|   -4.684320|   -4.673503|   -4.233225|  -11.643941|    4.038678|
+-----------------------------------------------------------------------+
|        File Writing Summary       |              Filename             |
+-----------------------------------------------------------------------+
|SU2 binary restart                 |restart_flow.dat                   |
|Paraview                           |flow.vtu                           |
|Paraview surface                   |surface_flow.vtu                   |
+-----------------------------------------------------------------------+
+--------------------------------------------------------------------------------------------------------------------+
|  Inner_Iter|   Time(sec)|    rms[Rho]|   rms[RhoU]|   rms[RhoV]|   rms[RhoW]|   rms[RhoE]|     rms[nu]|          CD|
+--------------------------------------------------------------------------------------------------------------------+
|         151|  1.3881e+00|   -4.129034|   -4.169114|   -4.681457|   -4.670681|   -4.232280|  -11.639992|    4.037496|
|         152|  1.3862e+00|   -4.124779|   -4.165095|   -4.677991|   -4.667262|   -4.231476|  -11.634586|    4.036133|
|         153|  1.3849e+00|   -4.119568|   -4.160459|   -4.673720|   -4.663042|   -4.230179|  -11.626181|    4.034627|
|         154|  1.3833e+00|   -4.112604|   -4.155165|   -4.668367|   -4.657748|   -4.227145|  -11.613612|    4.033079|
|         155|  1.3818e+00|   -4.102874|   -4.149125|   -4.661595|   -4.651038|   -4.220723|  -11.596641|    4.031713|
|         156|  1.3806e+00|   -4.090028|   -4.142072|   -4.653147|   -4.642633|   -4.210453|  -11.577365|    4.030942|
|         157|  1.3797e+00|   -4.075071|   -4.133521|   -4.643222|   -4.632671|   -4.198721|  -11.564291|    4.031452|
|         158|  1.3788e+00|   -4.059310|   -4.122684|   -4.632049|   -4.621315|   -4.188612|  -11.554839|    4.034209|
|         159|  1.3789e+00|   -4.041895|   -4.108800|   -4.619473|   -4.608380|   -4.178893|  -11.539966|    4.040252|
|         160|  1.3791e+00|   -4.020896|   -4.091325|   -4.604910|   -4.593289|   -4.165939|  -11.522215|    4.049477|
|         161|  1.3789e+00|   -3.997353|   -4.071457|   -4.588999|   -4.576745|   -4.150328|  -11.509914|    4.059843|
|         162|  1.3787e+00|   -3.974691|   -4.052288|   -4.574069|   -4.561272|   -4.135445|  -11.497228|    4.070060|
|         163|  1.3783e+00|   -3.953159|   -4.034242|   -4.560321|   -4.547118|   -4.121880|  -11.483796|    4.079114|
|         164|  1.3777e+00|   -3.932612|   -4.017458|   -4.547791|   -4.534342|   -4.109428|  -11.469321|    4.086420|
|         165|  1.3772e+00|   -3.912709|   -4.001947|   -4.536300|   -4.522764|   -4.097334|  -11.453601|    4.091858|
|         166|  1.3769e+00|   -3.893242|   -3.987694|   -4.525837|   -4.512358|   -4.084872|  -11.437181|    4.095686|
|         167|  1.3766e+00|   -3.874498|   -3.974663|   -4.516658|   -4.503347|   -4.072454|  -11.421264|    4.098394|
|         168|  1.3762e+00|   -3.856894|   -3.962696|   -4.508871|   -4.495827|   -4.061025|  -11.407134|    4.100534|
|         169|  1.3760e+00|   -3.840585|   -3.951546|   -4.502450|   -4.489757|   -4.050900|  -11.394310|    4.102580|
|         170|  1.3757e+00|   -3.825517|   -3.940998|   -4.497203|   -4.484946|   -4.041656|  -11.381997|    4.104831|
|         171|  1.3752e+00|   -3.811742|   -3.930918|   -4.492859|   -4.481150|   -4.033334|  -11.371073|    4.107375|
|         172|  1.3745e+00|   -3.799259|   -3.921234|   -4.489219|   -4.478187|   -4.026011|  -11.361155|    4.110088|
|         173|  1.3738e+00|   -3.787764|   -3.911911|   -4.485954|   -4.475737|   -4.018751|  -11.351979|    4.112681|
|         174|  1.3731e+00|   -3.777103|   -3.903069|   -4.483012|   -4.473758|   -4.010806|  -11.342969|    4.114749|
|         175|  1.3727e+00|   -3.767330|   -3.894886|   -4.480342|   -4.472194|   -4.002083|  -11.334984|    4.115841|
|         176|  1.3720e+00|   -3.758805|   -3.887409|   -4.478149|   -4.471243|   -3.993619|  -11.329752|    4.115540|
|         177|  1.3711e+00|   -3.751795|   -3.880574|   -4.476437|   -4.470888|   -3.986263|  -11.326120|    4.113535|
|         178|  1.3702e+00|   -3.746258|   -3.874300|   -4.474739|   -4.470655|   -3.979866|  -11.323414|    4.109691|
|         179|  1.3695e+00|   -3.742154|   -3.868584|   -4.472712|   -4.470183|   -3.974428|  -11.321746|    4.104092|
|         180|  1.3689e+00|   -3.739335|   -3.863436|   -4.470142|   -4.469223|   -3.969647|  -11.320844|    4.097058|
|         181|  1.3683e+00|   -3.737541|   -3.858905|   -4.466885|   -4.467570|   -3.964852|  -11.320676|    4.089122|
|         182|  1.3674e+00|   -3.736636|   -3.855139|   -4.462996|   -4.465218|   -3.959631|  -11.320526|    4.080960|
|         183|  1.3667e+00|   -3.736688|   -3.852263|   -4.458586|   -4.462233|   -3.954195|  -11.321868|    4.073308|
|         184|  1.3659e+00|   -3.738044|   -3.850262|   -4.454123|   -4.459048|   -3.949686|  -11.325567|    4.066842|
|         185|  1.3649e+00|   -3.740838|   -3.849020|   -4.449600|   -4.455636|   -3.946589|  -11.330468|    4.062083|
|         186|  1.3640e+00|   -3.744974|   -3.848450|   -4.444759|   -4.451707|   -3.944756|  -11.336171|    4.059317|
|         187|  1.3631e+00|   -3.750311|   -3.848535|   -4.439571|   -4.447223|   -3.944014|  -11.342254|    4.058552|
|         188|  1.3623e+00|   -3.756556|   -3.849235|   -4.434078|   -4.442225|   -3.943867|  -11.348758|    4.059544|
|         189|  1.3613e+00|   -3.763425|   -3.850580|   -4.428495|   -4.436931|   -3.943801|  -11.355083|    4.061849|
|         190|  1.3604e+00|   -3.770755|   -3.852718|   -4.423007|   -4.431500|   -3.943431|  -11.360743|    4.064920|
|         191|  1.3596e+00|   -3.778579|   -3.855643|   -4.417949|   -4.426328|   -3.943104|  -11.367912|    4.068205|
|         192|  1.3587e+00|   -3.787212|   -3.859219|   -4.413752|   -4.421892|   -3.943821|  -11.376971|    4.071232|
|         193|  1.3578e+00|   -3.796707|   -3.863265|   -4.410409|   -4.418194|   -3.945840|  -11.386667|    4.073662|
|         194|  1.3569e+00|   -3.806908|   -3.867639|   -4.407792|   -4.415119|   -3.949017|  -11.396578|    4.075302|
|         195|  1.3561e+00|   -3.817542|   -3.872259|   -4.405875|   -4.412662|   -3.953072|  -11.406226|    4.076096|
|         196|  1.3552e+00|   -3.828188|   -3.877064|   -4.404676|   -4.410853|   -3.957445|  -11.415544|    4.076086|
|         197|  1.3544e+00|   -3.838416|   -3.882066|   -4.404312|   -4.409808|   -3.961528|  -11.423602|    4.075375|
|         198|  1.3536e+00|   -3.847869|   -3.887393|   -4.404823|   -4.409596|   -3.964824|  -11.430471|    4.074086|
|         199|  1.3528e+00|   -3.856714|   -3.893058|   -4.406449|   -4.410479|   -3.967784|  -11.438993|    4.072340|
|         200|  1.3521e+00|   -3.865548|   -3.899013|   -4.409479|   -4.412753|   -3.971472|  -11.449410|    4.070242|
|         201|  1.3513e+00|   -3.874551|   -3.905090|   -4.413875|   -4.416365|   -3.976204|  -11.460509|    4.067877|
|         202|  1.3505e+00|   -3.883760|   -3.911193|   -4.419505|   -4.421189|   -3.982046|  -11.472205|    4.065311|
|         203|  1.3497e+00|   -3.893002|   -3.917277|   -4.426227|   -4.427121|   -3.988855|  -11.483865|    4.062600|
|         204|  1.3491e+00|   -3.901912|   -3.923370|   -4.433939|   -4.434054|   -3.996082|  -11.494842|    4.059782|
|         205|  1.3484e+00|   -3.910044|   -3.929549|   -4.442574|   -4.441924|   -4.002951|  -11.503824|    4.056886|
|         206|  1.3476e+00|   -3.917097|   -3.936029|   -4.452041|   -4.450634|   -4.008759|  -11.510691|    4.053931|
|         207|  1.3469e+00|   -3.923406|   -3.942986|   -4.462471|   -4.460339|   -4.013863|  -11.519584|    4.050927|
|         208|  1.3461e+00|   -3.929763|   -3.950426|   -4.474154|   -4.471327|   -4.019447|  -11.531094|    4.047877|
|         209|  1.3456e+00|   -3.936591|   -3.958241|   -4.487096|   -4.483587|   -4.025975|  -11.543263|    4.044790|
|         210|  1.3450e+00|   -3.944165|   -3.966344|   -4.501179|   -4.496990|   -4.033701|  -11.556535|    4.041677|
|         211|  1.3443e+00|   -3.952744|   -3.974713|   -4.516372|   -4.511504|   -4.043095|  -11.571418|    4.038554|
|         212|  1.3436e+00|   -3.962144|   -3.983374|   -4.532549|   -4.527034|   -4.053986|  -11.586214|    4.035446|
|         213|  1.3429e+00|   -3.971744|   -3.992369|   -4.549470|   -4.543349|   -4.065410|  -11.598184|    4.032375|
|         214|  1.3422e+00|   -3.980824|   -4.001884|   -4.566872|   -4.560172|   -4.076026|  -11.605280|    4.029360|
|         215|  1.3415e+00|   -3.989132|   -4.012157|   -4.584662|   -4.577401|   -4.085206|  -11.611155|    4.026411|
|         216|  1.3409e+00|   -3.997379|   -4.023259|   -4.603251|   -4.595485|   -4.094216|  -11.622301|    4.023526|
|         217|  1.3399e+00|   -4.006211|   -4.035055|   -4.622955|   -4.614724|   -4.104221|  -11.635964|    4.020699|
|         218|  1.3390e+00|   -4.015528|   -4.047288|   -4.643480|   -4.634809|   -4.114893|  -11.647758|    4.017920|
|         219|  1.3380e+00|   -4.025506|   -4.059734|   -4.664679|   -4.655599|   -4.126471|  -11.660452|    4.015183|
|         220|  1.3370e+00|   -4.036715|   -4.072201|   -4.686839|   -4.677372|   -4.140251|  -11.677261|    4.012489|
|         221|  1.3361e+00|   -4.049083|   -4.084515|   -4.710080|   -4.700327|   -4.156687|  -11.695452|    4.009848|
|         222|  1.3352e+00|   -4.061535|   -4.096520|   -4.733933|   -4.724014|   -4.174373|  -11.708886|    4.007273|
|         223|  1.3346e+00|   -4.072288|   -4.108188|   -4.757227|   -4.747293|   -4.190318|  -11.712440|    4.004776|
|         224|  1.3339e+00|   -4.080344|   -4.119705|   -4.779088|   -4.769223|   -4.202439|  -11.709869|    4.002363|
|         225|  1.3330e+00|   -4.086780|   -4.131042|   -4.800507|   -4.790775|   -4.212742|  -11.715153|    4.000028|
|         226|  1.3322e+00|   -4.092879|   -4.141914|   -4.822719|   -4.813194|   -4.224145|  -11.728398|    3.997757|
|         227|  1.3313e+00|   -4.098211|   -4.151825|   -4.844932|   -4.835682|   -4.235775|  -11.738980|    3.995530|
|         228|  1.3304e+00|   -4.102061|   -4.160358|   -4.865331|   -4.856427|   -4.245700|  -11.742937|    3.993327|
|         229|  1.3296e+00|   -4.105066|   -4.167293|   -4.883631|   -4.875095|   -4.254942|  -11.748789|    3.991138|
|         230|  1.3288e+00|   -4.108439|   -4.172600|   -4.901098|   -4.892941|   -4.266431|  -11.761251|    3.988965|
|         231|  1.3280e+00|   -4.112300|   -4.176384|   -4.918411|   -4.910695|   -4.281070|  -11.775560|    3.986820|
|         232|  1.3271e+00|   -4.115261|   -4.178915|   -4.934066|   -4.926944|   -4.295885|  -11.781753|    3.984725|
|         233|  1.3262e+00|   -4.115395|   -4.180616|   -4.944253|   -4.937762|   -4.305203|  -11.773887|    3.982701|
|         234|  1.3254e+00|   -4.112700|   -4.181889|   -4.947792|   -4.941885|   -4.307317|  -11.760381|    3.980760|
|         235|  1.3246e+00|   -4.109532|   -4.183117|   -4.948294|   -4.942840|   -4.307773|  -11.756908|    3.978902|
|         236|  1.3238e+00|   -4.107701|   -4.184563|   -4.948971|   -4.943938|   -4.311700|  -11.763447|    3.977113|
|         237|  1.3230e+00|   -4.106804|   -4.186240|   -4.948765|   -4.944171|   -4.317734|  -11.769172|    3.975369|
|         238|  1.3223e+00|   -4.105801|   -4.188169|   -4.944807|   -4.940634|   -4.321990|  -11.765777|    3.973642|
|         239|  1.3215e+00|   -4.104705|   -4.190483|   -4.936197|   -4.932362|   -4.323621|  -11.758048|    3.971914|
|         240|  1.3208e+00|   -4.104752|   -4.193404|   -4.925271|   -4.921724|   -4.326091|  -11.755297|    3.970178|
|         241|  1.3201e+00|   -4.107045|   -4.197258|   -4.915181|   -4.911870|   -4.333173|  -11.757829|    3.968440|
|         242|  1.3193e+00|   -4.111138|   -4.202388|   -4.906432|   -4.903411|   -4.344131|  -11.758983|    3.966723|
|         243|  1.3186e+00|   -4.115255|   -4.208943|   -4.896785|   -4.894114|   -4.353225|  -11.752522|    3.965051|
|         244|  1.3181e+00|   -4.118397|   -4.216839|   -4.884623|   -4.882287|   -4.356182|  -11.738043|    3.963442|
|         245|  1.3176e+00|   -4.121264|   -4.225943|   -4.870565|   -4.868518|   -4.354899|  -11.725292|    3.961901|
|         246|  1.3169e+00|   -4.125454|   -4.236244|   -4.857029|   -4.855178|   -4.355396|  -11.719655|    3.960415|
|         247|  1.3162e+00|   -4.131513|   -4.247655|   -4.845311|   -4.843617|   -4.360222|  -11.717929|    3.958957|
|         248|  1.3156e+00|   -4.138425|   -4.259870|   -4.834551|   -4.832975|   -4.366273|  -11.713872|    3.957487|
|         249|  1.3150e+00|   -4.144799|   -4.272468|   -4.823283|   -4.821819|   -4.368963|  -11.704690|    3.955967|
|         250|  1.3143e+00|   -4.150065|   -4.285018|   -4.810923|   -4.809571|   -4.366809|  -11.693462|    3.954371|
|         251|  1.3138e+00|   -4.154727|   -4.297245|   -4.797985|   -4.796734|   -4.362388|  -11.684105|    3.952690|
|         252|  1.3131e+00|   -4.159341|   -4.309020|   -4.785215|   -4.784021|   -4.358380|  -11.676803|    3.950934|
|         253|  1.3124e+00|   -4.163432|   -4.320034|   -4.772613|   -4.771423|   -4.354000|  -11.668626|    3.949134|
|         254|  1.3118e+00|   -4.165947|   -4.329703|   -4.759667|   -4.758477|   -4.346781|  -11.657267|    3.947326|
|         255|  1.3112e+00|   -4.166197|   -4.337432|   -4.745946|   -4.744781|   -4.335649|  -11.643682|    3.945545|
|         256|  1.3105e+00|   -4.164339|   -4.342993|   -4.731454|   -4.730389|   -4.322015|  -11.630538|    3.943812|
|         257|  1.3098e+00|   -4.160901|   -4.346434|   -4.716487|   -4.715545|   -4.307794|  -11.618294|    3.942123|
|         258|  1.3093e+00|   -4.155980|   -4.347712|   -4.701102|   -4.700247|   -4.293310|  -11.605611|    3.940453|
|         259|  1.3086e+00|   -4.149341|   -4.346697|   -4.685219|   -4.684406|   -4.277889|  -11.591566|    3.938756|
|         260|  1.3079e+00|   -4.140944|   -4.343460|   -4.668831|   -4.668012|   -4.261407|  -11.576620|    3.936974|
|         261|  1.3072e+00|   -4.131104|   -4.338410|   -4.652056|   -4.651258|   -4.244536|  -11.561533|    3.935053|
|         262|  1.3065e+00|   -4.120164|   -4.331990|   -4.635001|   -4.634322|   -4.227792|  -11.546264|    3.932949|
|         263|  1.3058e+00|   -4.108292|   -4.324406|   -4.617705|   -4.617280|   -4.211152|  -11.530537|    3.930641|
|         264|  1.3053e+00|   -4.095610|   -4.315751|   -4.600243|   -4.600108|   -4.194542|  -11.514421|    3.928131|
|         265|  1.3049e+00|   -4.082332|   -4.306271|   -4.582790|   -4.582820|   -4.178172|  -11.498203|    3.925446|
|         266|  1.3044e+00|   -4.068609|   -4.296212|   -4.565377|   -4.565284|   -4.162156|  -11.481814|    3.922624|
|         267|  1.3041e+00|   -4.054481|   -4.285721|   -4.547960|   -4.547563|   -4.146354|  -11.465205|    3.919706|
|         268|  1.3037e+00|   -4.039926|   -4.274821|   -4.530435|   -4.529669|   -4.130535|  -11.448450|    3.916722|
|         269|  1.3033e+00|   -4.025043|   -4.263633|   -4.512821|   -4.511643|   -4.114715|  -11.431723|    3.913680|
|         270|  1.3029e+00|   -4.010020|   -4.252298|   -4.495073|   -4.493716|   -4.099058|  -11.415089|    3.910562|
|         271|  1.3025e+00|   -3.994978|   -4.240865|   -4.477263|   -4.475988|   -4.083628|  -11.398576|    3.907317|
|         272|  1.3022e+00|   -3.979950|   -4.229294|   -4.459474|   -4.458459|   -4.068410|  -11.382076|    3.903871|
|         273|  1.3018e+00|   -3.964957|   -4.217577|   -4.441892|   -4.441128|   -4.053377|  -11.365445|    3.900128|
|         274|  1.3014e+00|   -3.949963|   -4.205756|   -4.424497|   -4.423925|   -4.038455|  -11.348753|    3.895986|
|         275|  1.3010e+00|   -3.934914|   -4.193851|   -4.407117|   -4.406799|   -4.023550|  -11.332211|    3.891342|
|         276|  1.3006e+00|   -3.919823|   -4.181908|   -4.389743|   -4.389771|   -4.008619|  -11.315796|    3.886103|
|         277|  1.3002e+00|   -3.904690|   -4.169961|   -4.372486|   -4.372766|   -3.993588|  -11.299473|    3.880194|
|         278|  1.2997e+00|   -3.889666|   -4.158077|   -4.355452|   -4.355851|   -3.978632|  -11.283355|    3.873558|
|         279|  1.2994e+00|   -3.874933|   -4.146352|   -4.338785|   -4.339172|   -3.964021|  -11.267677|    3.866159|
|         280|  1.2997e+00|   -3.860559|   -4.134797|   -4.322587|   -4.322890|   -3.949924|  -11.252278|    3.857980|
|         281|  1.2992e+00|   -3.846393|   -4.123366|   -4.306854|   -4.306894|   -3.936122|  -11.236893|    3.849019|
|         282|  1.2989e+00|   -3.832258|   -4.111966|   -4.291503|   -4.290969|   -3.922326|  -11.221465|    3.839292|
|         283|  1.2985e+00|   -3.818071|   -4.100520|   -4.276456|   -4.275093|   -3.908367|  -11.206164|    3.828829|
|         284|  1.2981e+00|   -3.803956|   -4.089037|   -4.261600|   -4.259398|   -3.894360|  -11.191296|    3.817677|
|         285|  1.2977e+00|   -3.790155|   -4.077580|   -4.246879|   -4.244279|   -3.880646|  -11.177127|    3.805898|
|         286|  1.2973e+00|   -3.776945|   -4.066272|   -4.232542|   -4.229989|   -3.867611|  -11.163365|    3.793579|
|         287|  1.2969e+00|   -3.764404|   -4.055199|   -4.218819|   -4.216547|   -3.855338|  -11.149907|    3.780825|
|         288|  1.2966e+00|   -3.752481|   -4.044397|   -4.205806|   -4.203753|   -3.843724|  -11.136900|    3.767763|
|         289|  1.2963e+00|   -3.741137|   -4.033892|   -4.193522|   -4.191636|   -3.832710|  -11.124328|    3.754543|
|         290|  1.2960e+00|   -3.730292|   -4.023726|   -4.182001|   -4.180103|   -3.822189|  -11.112082|    3.741326|
|         291|  1.2957e+00|   -3.719943|   -4.013906|   -4.171178|   -4.168950|   -3.812109|  -11.100004|    3.728282|
|         292|  1.2954e+00|   -3.710195|   -4.004433|   -4.160940|   -4.158159|   -3.802597|  -11.088237|    3.715581|
|         293|  1.2951e+00|   -3.701201|   -3.995290|   -4.151133|   -4.148010|   -3.793869|  -11.076781|    3.703379|
|         294|  1.2948e+00|   -3.693123|   -3.986462|   -4.141769|   -4.138711|   -3.786189|  -11.065922|    3.691813|
|         295|  1.2945e+00|   -3.685973|   -3.977949|   -4.133056|   -4.130350|   -3.779613|  -11.055614|    3.680985|
|         296|  1.2943e+00|   -3.679485|   -3.969790|   -4.125124|   -4.122952|   -3.773783|  -11.045439|    3.670960|
|         297|  1.2939e+00|   -3.673189|   -3.962067|   -4.118002|   -4.116298|   -3.768066|  -11.034984|    3.661758|
|         298|  1.2936e+00|   -3.666965|   -3.954802|   -4.111513|   -4.110099|   -3.762315|  -11.024120|    3.653354|
|         299|  1.2934e+00|   -3.661041|   -3.947798|   -4.105531|   -4.104092|   -3.756790|  -11.013175|    3.645678|
|         300|  1.2930e+00|   -3.655876|   -3.940831|   -4.099992|   -4.098290|   -3.752046|  -11.002579|    3.638619|
+-----------------------------------------------------------------------+
|        File Writing Summary       |              Filename             |
+-----------------------------------------------------------------------+
|SU2 binary restart                 |restart_flow.dat                   |
|Paraview                           |flow.vtu                           |
|Paraview surface                   |surface_flow.vtu                   |
+-----------------------------------------------------------------------+
+--------------------------------------------------------------------------------------------------------------------+
|  Inner_Iter|   Time(sec)|    rms[Rho]|   rms[RhoU]|   rms[RhoV]|   rms[RhoW]|   rms[RhoE]|     rms[nu]|          CD|
+--------------------------------------------------------------------------------------------------------------------+
|         301|  1.3134e+00|   -3.651809|   -3.933866|   -4.094917|   -4.092812|   -3.748521|  -10.992482|    3.632039|
|         302|  1.3133e+00|   -3.648803|   -3.926966|   -4.090234|   -4.087670|   -3.746213|  -10.982641|    3.625776|
|         303|  1.3132e+00|   -3.646519|   -3.920310|   -4.085995|   -4.082955|   -3.744725|  -10.972612|    3.619662|
|         304|  1.3129e+00|   -3.644333|   -3.914100|   -4.082048|   -4.078574|   -3.743311|  -10.961945|    3.613527|
|         305|  1.3125e+00|   -3.641865|   -3.908429|   -4.078274|   -4.074500|   -3.741549|  -10.950563|    3.607216|
|         306|  1.3123e+00|   -3.638981|   -3.903162|   -4.074535|   -4.070657|   -3.739226|  -10.938571|    3.600593|
|         307|  1.3120e+00|   -3.635942|   -3.898134|   -4.070894|   -4.067050|   -3.736666|  -10.926325|    3.593548|
|         308|  1.3117e+00|   -3.633123|   -3.893108|   -4.067390|   -4.063642|   -3.734314|  -10.914016|    3.585997|
|         309|  1.3099e+00|   -3.630864|   -3.887982|   -4.064090|   -4.060499|   -3.732581|  -10.923213|    3.585758|
|         310|  1.3081e+00|   -3.630694|   -3.887912|   -4.064118|   -4.060535|   -3.732723|  -10.922106|    3.585471|
|         311|  1.3065e+00|   -3.630512|   -3.887826|   -4.064153|   -4.060580|   -3.732916|  -10.920800|    3.585124|
|         312|  1.3050e+00|   -3.630325|   -3.887722|   -4.064195|   -4.060634|   -3.733176|  -10.919267|    3.584705|
|         313|  1.3034e+00|   -3.630142|   -3.887593|   -4.064244|   -4.060697|   -3.733525|  -10.917474|    3.584199|
|         314|  1.3019e+00|   -3.629982|   -3.887435|   -4.064301|   -4.060771|   -3.733997|  -10.915390|    3.583586|
|         315|  1.3004e+00|   -3.629876|   -3.887243|   -4.064371|   -4.060858|   -3.734636|  -10.912987|    3.582844|
|         316|  1.2991e+00|   -3.629861|   -3.887006|   -4.064454|   -4.060963|   -3.735495|  -10.910234|    3.581941|
|         317|  1.2979e+00|   -3.629996|   -3.886717|   -4.064551|   -4.061082|   -3.736645|  -10.907111|    3.580843|
|         318|  1.2966e+00|   -3.630356|   -3.886369|   -4.064659|   -4.061214|   -3.738164|  -10.903600|    3.579501|
|         319|  1.2954e+00|   -3.631023|   -3.885953|   -4.064771|   -4.061347|   -3.740123|  -10.899687|    3.577858|
|         320|  1.2944e+00|   -3.632105|   -3.885467|   -4.064876|   -4.061473|   -3.742603|  -10.895354|    3.575838|
|         321|  1.2933e+00|   -3.633682|   -3.884905|   -4.064940|   -4.061562|   -3.745618|  -10.890561|    3.573348|
|         322|  1.2922e+00|   -3.635847|   -3.884265|   -4.064916|   -4.061584|   -3.749168|  -10.885212|    3.570265|
|         323|  1.2913e+00|   -3.638541|   -3.883514|   -4.064740|   -4.061465|   -3.753024|  -10.879137|    3.566436|
|         324|  1.2905e+00|   -3.641574|   -3.882566|   -4.064304|   -4.061116|   -3.756788|  -10.872069|    3.561660|
|         325|  1.2899e+00|   -3.644474|   -3.881225|   -4.063433|   -4.060395|   -3.759750|  -10.863633|    3.555683|
|         326|  1.2892e+00|   -3.646525|   -3.879138|   -4.061971|   -4.059148|   -3.761011|  -10.853432|    3.548173|
|         327|  1.2887e+00|   -3.646731|   -3.875771|   -4.059726|   -4.057197|   -3.759509|  -10.841123|    3.538703|
|         328|  1.2885e+00|   -3.643991|   -3.870487|   -4.056459|   -4.054358|   -3.754272|  -10.827310|    3.527505|
|         329|  1.2881e+00|   -3.638077|   -3.863426|   -4.052562|   -4.050888|   -3.745776|  -10.813395|    3.515842|
|         330|  1.2876e+00|   -3.630579|   -3.856055|   -4.049062|   -4.047653|   -3.736559|  -10.799254|    3.503740|
|         331|  1.2872e+00|   -3.623279|   -3.849000|   -4.046065|   -4.044748|   -3.728475|  -10.785170|    3.491224|
|         332|  1.2868e+00|   -3.617565|   -3.842562|   -4.043612|   -4.042296|   -3.722780|  -10.771117|    3.478318|
|         333|  1.2863e+00|   -3.614094|   -3.836867|   -4.041684|   -4.040399|   -3.719891|  -10.756882|    3.465049|
|         334|  1.2858e+00|   -3.612754|   -3.831945|   -4.040121|   -4.039006|   -3.719422|  -10.742212|    3.451441|
|         335|  1.2854e+00|   -3.612946|   -3.827761|   -4.038864|   -4.038019|   -3.720562|  -10.726981|    3.437519|
|         336|  1.2849e+00|   -3.613979|   -3.824183|   -4.037808|   -4.037334|   -3.722481|  -10.711189|    3.423303|
|         337|  1.2844e+00|   -3.615187|   -3.821026|   -4.036832|   -4.036785|   -3.724424|  -10.694941|    3.408815|
|         338|  1.2841e+00|   -3.616042|   -3.818079|   -4.035824|   -4.036244|   -3.725829|  -10.678348|    3.394073|
|         339|  1.2836e+00|   -3.616224|   -3.815162|   -4.034745|   -4.035671|   -3.726399|  -10.661510|    3.379095|
|         340|  1.2833e+00|   -3.615701|   -3.812130|   -4.033622|   -4.035030|   -3.726177|  -10.644521|    3.363895|
|         341|  1.2829e+00|   -3.614687|   -3.808898|   -4.032554|   -4.034363|   -3.725446|  -10.627429|    3.348489|
|         342|  1.2825e+00|   -3.613389|   -3.805428|   -4.031558|   -4.033729|   -3.724444|  -10.610219|    3.332886|
|         343|  1.2822e+00|   -3.612036|   -3.801749|   -4.030722|   -4.033175|   -3.723439|  -10.592877|    3.317097|
|         344|  1.2818e+00|   -3.610778|   -3.797907|   -4.030101|   -4.032694|   -3.722593|  -10.575391|    3.301130|
|         345|  1.2814e+00|   -3.609730|   -3.793968|   -4.029716|   -4.032316|   -3.722025|  -10.557814|    3.284989|
|         346|  1.2810e+00|   -3.608853|   -3.789977|   -4.029507|   -4.032017|   -3.721667|  -10.540238|    3.268679|
|         347|  1.2805e+00|   -3.608014|   -3.785959|   -4.029422|   -4.031775|   -3.721363|  -10.522749|    3.252199|
|         348|  1.2801e+00|   -3.607126|   -3.781932|   -4.029413|   -4.031575|   -3.721026|  -10.505434|    3.235550|
|         349|  1.2797e+00|   -3.606112|   -3.777891|   -4.029385|   -4.031402|   -3.720567|  -10.488316|    3.218729|
|         350|  1.2793e+00|   -3.604937|   -3.773813|   -4.029323|   -4.031240|   -3.719952|  -10.471346|    3.201734|
|         351|  1.2789e+00|   -3.603607|   -3.769663|   -4.029216|   -4.031103|   -3.719194|  -10.454440|    3.184560|
|         352|  1.2785e+00|   -3.602154|   -3.765397|   -4.029049|   -4.030971|   -3.718328|  -10.437477|    3.167203|
|         353|  1.2782e+00|   -3.600606|   -3.760975|   -4.028822|   -4.030841|   -3.717374|  -10.420368|    3.149659|
|         354|  1.2777e+00|   -3.598972|   -3.756357|   -4.028572|   -4.030726|   -3.716348|  -10.403141|    3.131925|
|         355|  1.2775e+00|   -3.597218|   -3.751506|   -4.028298|   -4.030588|   -3.715225|  -10.385947|    3.113997|
|         356|  1.2771e+00|   -3.595318|   -3.746383|   -4.028012|   -4.030412|   -3.713995|  -10.368962|    3.095874|
|         357|  1.2767e+00|   -3.593237|   -3.740976|   -4.027714|   -4.030148|   -3.712618|  -10.352321|    3.077555|
|         358|  1.2763e+00|   -3.590947|   -3.735272|   -4.027415|   -4.029781|   -3.711073|  -10.336073|    3.059042|
|         359|  1.2760e+00|   -3.588401|   -3.729260|   -4.027099|   -4.029320|   -3.709311|  -10.320209|    3.040337|
|         360|  1.2756e+00|   -3.585562|   -3.722937|   -4.026710|   -4.028754|   -3.707288|  -10.304651|    3.021444|
|         361|  1.2752e+00|   -3.582369|   -3.716280|   -4.026221|   -4.028069|   -3.704946|  -10.289299|    3.002369|
|         362|  1.2748e+00|   -3.578792|   -3.709274|   -4.025597|   -4.027261|   -3.702249|  -10.274074|    2.983119|
|         363|  1.2745e+00|   -3.574808|   -3.701911|   -4.024838|   -4.026317|   -3.699181|  -10.258916|    2.963702|
|         364|  1.2741e+00|   -3.570424|   -3.694191|   -4.023914|   -4.025239|   -3.695743|  -10.243806|    2.944129|
|         365|  1.2737e+00|   -3.565648|   -3.686099|   -4.022797|   -4.024012|   -3.691936|  -10.228836|    2.924410|
|         366|  1.2733e+00|   -3.560515|   -3.677629|   -4.021508|   -4.022647|   -3.687799|  -10.214164|    2.904560|
|         367|  1.2730e+00|   -3.555034|   -3.668775|   -4.020052|   -4.021143|   -3.683335|  -10.199895|    2.884591|
|         368|  1.2726e+00|   -3.549211|   -3.659531|   -4.018420|   -4.019494|   -3.678543|  -10.186093|    2.864521|
|         369|  1.2722e+00|   -3.543044|   -3.649888|   -4.016604|   -4.017688|   -3.673412|  -10.172760|    2.844364|
|         370|  1.2718e+00|   -3.536508|   -3.639856|   -4.014584|   -4.015676|   -3.667902|  -10.159816|    2.824138|
|         371|  1.2714e+00|   -3.529578|   -3.629452|   -4.012336|   -4.013448|   -3.661975|  -10.147231|    2.803862|
|         372|  1.2711e+00|   -3.522276|   -3.618716|   -4.009873|   -4.010979|   -3.655650|  -10.135060|    2.783555|
|         373|  1.2707e+00|   -3.514610|   -3.607680|   -4.007164|   -4.008249|   -3.648923|  -10.123334|    2.763234|
|         374|  1.2703e+00|   -3.506604|   -3.596390|   -4.004222|   -4.005254|   -3.641813|  -10.112025|    2.742920|
|         375|  1.2700e+00|   -3.498302|   -3.584906|   -4.001042|   -4.002013|   -3.634361|  -10.101035|    2.722630|
|         376|  1.2697e+00|   -3.489749|   -3.573272|   -3.997628|   -3.998546|   -3.626604|  -10.090240|    2.702384|
|         377|  1.2693e+00|   -3.480958|   -3.561499|   -3.993981|   -3.994844|   -3.618545|  -10.079627|    2.682200|
|         378|  1.2689e+00|   -3.471981|   -3.549640|   -3.990115|   -3.990928|   -3.610236|  -10.069290|    2.662094|
|         379|  1.2686e+00|   -3.462858|   -3.537726|   -3.986050|   -3.986826|   -3.601711|  -10.059319|    2.642082|
|         380|  1.2682e+00|   -3.453610|   -3.525793|   -3.981791|   -3.982535|   -3.592990|  -10.049738|    2.622180|
|         381|  1.2678e+00|   -3.444269|   -3.513870|   -3.977339|   -3.978063|   -3.584102|  -10.040463|    2.602402|
|         382|  1.2675e+00|   -3.434881|   -3.502008|   -3.972723|   -3.973422|   -3.575102|  -10.031354|    2.582760|
|         383|  1.2671e+00|   -3.425464|   -3.490221|   -3.967955|   -3.968623|   -3.566006|  -10.022358|    2.563266|
|         384|  1.2668e+00|   -3.416047|   -3.478542|   -3.963060|   -3.963693|   -3.556848|  -10.013508|    2.543931|
|         385|  1.2665e+00|   -3.406664|   -3.467006|   -3.958062|   -3.958671|   -3.547664|  -10.004853|    2.524764|
|         386|  1.2662e+00|   -3.397341|   -3.455638|   -3.952991|   -3.953574|   -3.538489|   -9.996406|    2.505773|
|         387|  1.2648e+00|   -3.388100|   -3.444457|   -3.947880|   -3.948420|   -3.529350|  -10.008096|    2.505164|
|         388|  1.2634e+00|   -3.387899|   -3.444191|   -3.947846|   -3.948398|   -3.529248|  -10.007531|    2.504434|
|         389|  1.2620e+00|   -3.387666|   -3.443882|   -3.947799|   -3.948365|   -3.529135|  -10.006851|    2.503557|
|         390|  1.2606e+00|   -3.387398|   -3.443528|   -3.947735|   -3.948319|   -3.529014|  -10.006031|    2.502505|
|         391|  1.2594e+00|   -3.387092|   -3.443126|   -3.947648|   -3.948252|   -3.528888|  -10.005041|    2.501241|
|         392|  1.2583e+00|   -3.386749|   -3.442674|   -3.947532|   -3.948157|   -3.528767|  -10.003848|    2.499723|
|         393|  1.2571e+00|   -3.386368|   -3.442176|   -3.947372|   -3.948025|   -3.528659|  -10.002407|    2.497900|
|         394|  1.2559e+00|   -3.385949|   -3.441632|   -3.947154|   -3.947838|   -3.528578|  -10.000669|    2.495710|
|         395|  1.2547e+00|   -3.385498|   -3.441051|   -3.946856|   -3.947575|   -3.528543|   -9.998573|    2.493077|
|         396|  1.2537e+00|   -3.385021|   -3.440445|   -3.946452|   -3.947209|   -3.528581|   -9.996046|    2.489911|
|         397|  1.2528e+00|   -3.384524|   -3.439826|   -3.945905|   -3.946703|   -3.528717|   -9.993007|    2.486103|
|         398|  1.2518e+00|   -3.384011|   -3.439204|   -3.945172|   -3.946011|   -3.528975|   -9.989365|    2.481522|
|         399|  1.2509e+00|   -3.383467|   -3.438569|   -3.944200|   -3.945072|   -3.529360|   -9.985021|    2.476012|
|         400|  1.2501e+00|   -3.382850|   -3.437876|   -3.942926|   -3.943818|   -3.529833|   -9.979878|    2.469388|
|         401|  1.2493e+00|   -3.382052|   -3.437000|   -3.941277|   -3.942169|   -3.530269|   -9.973853|    2.461436|
|         402|  1.2487e+00|   -3.380868|   -3.435692|   -3.939181|   -3.940041|   -3.530398|   -9.966890|    2.451907|
|         403|  1.2481e+00|   -3.378955|   -3.433524|   -3.936578|   -3.937361|   -3.529741|   -9.958980|    2.440518|
|         404|  1.2476e+00|   -3.375754|   -3.429802|   -3.933406|   -3.934056|   -3.527513|   -9.950167|    2.426946|
|         405|  1.2472e+00|   -3.370533|   -3.423607|   -3.929625|   -3.930068|   -3.522662|   -9.940544|    2.410823|
|         406|  1.2469e+00|   -3.362442|   -3.413891|   -3.925182|   -3.925327|   -3.513968|   -9.931219|    2.392897|
|         407|  1.2466e+00|   -3.351725|   -3.400960|   -3.920404|   -3.920229|   -3.501607|   -9.923268|    2.375249|
|         408|  1.2464e+00|   -3.340512|   -3.387425|   -3.916096|   -3.915648|   -3.488296|   -9.914886|    2.357864|
|         409|  1.2461e+00|   -3.329544|   -3.374222|   -3.912097|   -3.911419|   -3.475137|   -9.905925|    2.340726|
|         410|  1.2459e+00|   -3.319321|   -3.361971|   -3.908233|   -3.907389|   -3.462883|   -9.896302|    2.323827|
|         411|  1.2456e+00|   -3.310122|   -3.351010|   -3.904352|   -3.903423|   -3.451950|   -9.885996|    2.307163|
|         412|  1.2454e+00|   -3.302001|   -3.341402|   -3.900361|   -3.899403|   -3.442454|   -9.875000|    2.290733|
|         413|  1.2449e+00|   -3.294888|   -3.333059|   -3.896225|   -3.895300|   -3.434330|   -9.863298|    2.274542|
|         414|  1.2445e+00|   -3.288635|   -3.325798|   -3.891951|   -3.891149|   -3.427395|   -9.850903|    2.258595|
|         415|  1.2441e+00|   -3.283079|   -3.319408|   -3.887634|   -3.887004|   -3.421427|   -9.837881|    2.242898|
|         416|  1.2436e+00|   -3.278008|   -3.313636|   -3.883304|   -3.882918|   -3.416141|   -9.824308|    2.227458|
|         417|  1.2432e+00|   -3.273270|   -3.308289|   -3.879034|   -3.878973|   -3.411311|   -9.810270|    2.212281|
|         418|  1.2428e+00|   -3.268778|   -3.303245|   -3.874921|   -3.875269|   -3.406794|   -9.795845|    2.197373|
|         419|  1.2424e+00|   -3.264458|   -3.298400|   -3.870990|   -3.871836|   -3.402461|   -9.781061|    2.182741|
|         420|  1.2420e+00|   -3.260309|   -3.293747|   -3.867289|   -3.868704|   -3.398268|   -9.765920|    2.168392|
|         421|  1.2416e+00|   -3.256316|   -3.289251|   -3.863817|   -3.865873|   -3.394189|   -9.750411|    2.154333|
|         422|  1.2412e+00|   -3.252501|   -3.284929|   -3.860587|   -3.863332|   -3.390236|   -9.734554|    2.140568|
|         423|  1.2408e+00|   -3.248906|   -3.280823|   -3.857616|   -3.861048|   -3.386454|   -9.718384|    2.127104|
|         424|  1.2404e+00|   -3.245561|   -3.276970|   -3.854913|   -3.859018|   -3.382888|   -9.701926|    2.113946|
|         425|  1.2400e+00|   -3.242473|   -3.273382|   -3.852443|   -3.857204|   -3.379552|   -9.685205|    2.101098|
|         426|  1.2396e+00|   -3.239645|   -3.270066|   -3.850208|   -3.855560|   -3.376456|   -9.668240|    2.088563|
|         427|  1.2392e+00|   -3.237088|   -3.267032|   -3.848204|   -3.854067|   -3.373617|   -9.651015|    2.076344|
|         428|  1.2389e+00|   -3.234778|   -3.264265|   -3.846408|   -3.852676|   -3.371013|   -9.633531|    2.064441|
|         429|  1.2385e+00|   -3.232708|   -3.261757|   -3.844831|   -3.851380|   -3.368646|   -9.615851|    2.052856|
|         430|  1.2381e+00|   -3.230862|   -3.259492|   -3.843473|   -3.850179|   -3.366505|   -9.598053|    2.041587|
|         431|  1.2377e+00|   -3.229239|   -3.257464|   -3.842352|   -3.849087|   -3.364589|   -9.580228|    2.030634|
|         432|  1.2373e+00|   -3.227820|   -3.255655|   -3.841464|   -3.848081|   -3.362877|   -9.562468|    2.019995|
|         433|  1.2369e+00|   -3.226591|   -3.254051|   -3.840787|   -3.847170|   -3.361352|   -9.544886|    2.009667|
|         434|  1.2365e+00|   -3.225540|   -3.252641|   -3.840322|   -3.846354|   -3.360001|   -9.527579|    1.999648|
|         435|  1.2361e+00|   -3.224688|   -3.251436|   -3.840142|   -3.845669|   -3.358849|   -9.510642|    1.989935|
|         436|  1.2358e+00|   -3.224001|   -3.250406|   -3.840205|   -3.845100|   -3.357861|   -9.494175|    1.980525|
|         437|  1.2354e+00|   -3.223473|   -3.249543|   -3.840491|   -3.844673|   -3.357029|   -9.478286|    1.971416|
|         438|  1.2351e+00|   -3.223100|   -3.248844|   -3.841009|   -3.844413|   -3.356356|   -9.463081|    1.962606|
|         439|  1.2347e+00|   -3.222877|   -3.248301|   -3.841721|   -3.844333|   -3.355831|   -9.448642|    1.954093|
|         440|  1.2344e+00|   -3.222799|   -3.247912|   -3.842578|   -3.844434|   -3.355444|   -9.435028|    1.945877|
|         441|  1.2340e+00|   -3.222914|   -3.247719|   -3.843578|   -3.844753|   -3.355241|   -9.422278|    1.937958|
|         442|  1.2337e+00|   -3.223208|   -3.247712|   -3.844713|   -3.845254|   -3.355202|   -9.410417|    1.930335|
|         443|  1.2333e+00|   -3.223674|   -3.247889|   -3.845978|   -3.845919|   -3.355325|   -9.399461|    1.923010|
|         444|  1.2329e+00|   -3.224321|   -3.248259|   -3.847331|   -3.846774|   -3.355615|   -9.389417|    1.915985|
|         445|  1.2326e+00|   -3.225147|   -3.248823|   -3.848768|   -3.847821|   -3.356075|   -9.380252|    1.909261|
|         446|  1.2322e+00|   -3.226157|   -3.249587|   -3.850280|   -3.849063|   -3.356709|   -9.371931|    1.902841|
|         447|  1.2318e+00|   -3.227369|   -3.250566|   -3.851873|   -3.850525|   -3.357534|   -9.364395|    1.896727|
|         448|  1.2315e+00|   -3.228815|   -3.251791|   -3.853590|   -3.852196|   -3.358583|   -9.357523|    1.890921|
|         449|  1.2311e+00|   -3.230458|   -3.253230|   -3.855375|   -3.854054|   -3.359821|   -9.351188|    1.885424|
|         450|  1.2308e+00|   -3.232295|   -3.254880|   -3.857236|   -3.856098|   -3.361246|   -9.345252|    1.880238|
+-----------------------------------------------------------------------+
|        File Writing Summary       |              Filename             |
+-----------------------------------------------------------------------+
|SU2 binary restart                 |restart_flow.dat                   |
|Paraview                           |flow.vtu                           |
|Paraview surface                   |surface_flow.vtu                   |
+-----------------------------------------------------------------------+
+--------------------------------------------------------------------------------------------------------------------+
|  Inner_Iter|   Time(sec)|    rms[Rho]|   rms[RhoU]|   rms[RhoV]|   rms[RhoW]|   rms[RhoE]|     rms[nu]|          CD|
+--------------------------------------------------------------------------------------------------------------------+
|         451|  1.2444e+00|   -3.234343|   -3.256756|   -3.859206|   -3.858337|   -3.362875|   -9.339663|    1.875363|
|         452|  1.2444e+00|   -3.236605|   -3.258857|   -3.861299|   -3.860777|   -3.364717|   -9.334217|    1.870798|
|         453|  1.2444e+00|   -3.239080|   -3.261178|   -3.863521|   -3.863434|   -3.366768|   -9.328862|    1.866544|
|         454|  1.2444e+00|   -3.241776|   -3.263727|   -3.865893|   -3.866285|   -3.369036|   -9.323483|    1.862596|
|         455|  1.2443e+00|   -3.244676|   -3.266490|   -3.868393|   -3.869339|   -3.371506|   -9.318042|    1.858954|
|         456|  1.2444e+00|   -3.247765|   -3.269453|   -3.871016|   -3.872559|   -3.374156|   -9.312518|    1.855612|
|         457|  1.2443e+00|   -3.251102|   -3.272666|   -3.873857|   -3.875986|   -3.377050|   -9.306910|    1.852568|
|         458|  1.2441e+00|   -3.254658|   -3.276107|   -3.876867|   -3.879582|   -3.380159|   -9.301279|    1.849816|
|         459|  1.2437e+00|   -3.258389|   -3.279741|   -3.879997|   -3.883301|   -3.383435|   -9.295736|    1.847352|
|         460|  1.2435e+00|   -3.262279|   -3.283556|   -3.883239|   -3.887106|   -3.386864|   -9.290176|    1.845172|
|         461|  1.2432e+00|   -3.266332|   -3.287556|   -3.886608|   -3.891001|   -3.390451|   -9.284540|    1.843273|
|         462|  1.2431e+00|   -3.270546|   -3.291739|   -3.890096|   -3.894996|   -3.394197|   -9.278868|    1.841651|
|         463|  1.2429e+00|   -3.274906|   -3.296093|   -3.893684|   -3.899112|   -3.398094|   -9.273318|    1.840303|
|         464|  1.2428e+00|   -3.279429|   -3.300637|   -3.897398|   -3.903304|   -3.402154|   -9.267942|    1.839229|
|         465|  1.2427e+00|   -3.284057|   -3.305316|   -3.901203|   -3.907537|   -3.406324|   -9.262973|    1.838428|
|         466|  1.2425e+00|   -3.288777|   -3.310111|   -3.905085|   -3.911818|   -3.410591|   -9.258632|    1.837899|
|         467|  1.2424e+00|   -3.293592|   -3.315020|   -3.909053|   -3.916169|   -3.414959|   -9.255146|    1.837644|
|         468|  1.2422e+00|   -3.298498|   -3.320036|   -3.913101|   -3.920601|   -3.419423|   -9.252702|    1.837664|
|         469|  1.2419e+00|   -3.303479|   -3.325147|   -3.917211|   -3.925096|   -3.423967|   -9.251351|    1.837961|
|         470|  1.2417e+00|   -3.308553|   -3.330369|   -3.921379|   -3.929681|   -3.428603|   -9.251071|    1.838535|
|         471|  1.2416e+00|   -3.313728|   -3.335710|   -3.925634|   -3.934371|   -3.433340|   -9.251893|    1.839390|
|         472|  1.2414e+00|   -3.318990|   -3.341157|   -3.930002|   -3.939140|   -3.438170|   -9.253676|    1.840524|
|         473|  1.2412e+00|   -3.324328|   -3.346696|   -3.934491|   -3.943978|   -3.443083|   -9.256245|    1.841939|
|         474|  1.2410e+00|   -3.329729|   -3.352308|   -3.939060|   -3.948897|   -3.448063|   -9.259472|    1.843633|
|         475|  1.2408e+00|   -3.335208|   -3.357998|   -3.943709|   -3.953933|   -3.453123|   -9.263213|    1.845604|
|         476|  1.2405e+00|   -3.340794|   -3.363792|   -3.948475|   -3.959102|   -3.458293|   -9.267347|    1.847848|
|         477|  1.2403e+00|   -3.346434|   -3.369644|   -3.953359|   -3.964334|   -3.463519|   -9.271694|    1.850362|
|         478|  1.2401e+00|   -3.352136|   -3.375561|   -3.958343|   -3.969633|   -3.468806|   -9.276086|    1.853141|
|         479|  1.2399e+00|   -3.357874|   -3.381523|   -3.963445|   -3.974957|   -3.474130|   -9.280417|    1.856177|
|         480|  1.2397e+00|   -3.363634|   -3.387521|   -3.968627|   -3.980314|   -3.479476|   -9.284607|    1.859466|
|         481|  1.2394e+00|   -3.369432|   -3.393565|   -3.973922|   -3.985711|   -3.484862|   -9.288641|    1.863000|
|         482|  1.2393e+00|   -3.375265|   -3.399656|   -3.979305|   -3.991155|   -3.490284|   -9.292486|    1.866773|
|         483|  1.2390e+00|   -3.381179|   -3.405833|   -3.984819|   -3.996707|   -3.495790|   -9.296109|    1.870779|
|         484|  1.2388e+00|   -3.387199|   -3.412123|   -3.990481|   -4.002401|   -3.501406|   -9.299495|    1.875011|
|         485|  1.2386e+00|   -3.393353|   -3.418557|   -3.996285|   -4.008260|   -3.507159|   -9.302625|    1.879464|
|         486|  1.2384e+00|   -3.399641|   -3.425136|   -4.002249|   -4.014207|   -3.513042|   -9.305504|    1.884134|
|         487|  1.2382e+00|   -3.406032|   -3.431854|   -4.008327|   -4.020217|   -3.519030|   -9.308167|    1.889018|
|         488|  1.2381e+00|   -3.412487|   -3.438670|   -4.014514|   -4.026252|   -3.525087|   -9.310638|    1.894112|
|         489|  1.2378e+00|   -3.419018|   -3.445592|   -4.020805|   -4.032332|   -3.531226|   -9.312966|    1.899414|
|         490|  1.2377e+00|   -3.425689|   -3.452663|   -4.027230|   -4.038563|   -3.537510|   -9.315193|    1.904923|
|         491|  1.2375e+00|   -3.432488|   -3.459867|   -4.033796|   -4.044881|   -3.543922|   -9.317342|    1.910637|
|         492|  1.2373e+00|   -3.439364|   -3.467159|   -4.040461|   -4.051224|   -3.550413|   -9.319395|    1.916558|
|         493|  1.2371e+00|   -3.446306|   -3.474527|   -4.047226|   -4.057614|   -3.556975|   -9.321311|    1.922684|
|         494|  1.2369e+00|   -3.453328|   -3.481991|   -4.054117|   -4.064081|   -3.563625|   -9.323036|    1.929017|
|         495|  1.2367e+00|   -3.460397|   -3.489524|   -4.061103|   -4.070628|   -3.570331|   -9.324531|    1.935555|
|         496|  1.2365e+00|   -3.467495|   -3.497120|   -4.068182|   -4.077239|   -3.577085|   -9.325777|    1.942299|
|         497|  1.2362e+00|   -3.474605|   -3.504771|   -4.075343|   -4.083921|   -3.583870|   -9.326766|    1.949250|
|         498|  1.2360e+00|   -3.481707|   -3.512467|   -4.082592|   -4.090673|   -3.590676|   -9.327517|    1.956406|
|         499|  1.2358e+00|   -3.488847|   -3.520243|   -4.089998|   -4.097514|   -3.597544|   -9.328038|    1.963766|
|         500|  1.2356e+00|   -3.495980|   -3.528070|   -4.097479|   -4.104426|   -3.604433|   -9.328367|    1.971328|
|         501|  1.2354e+00|   -3.503141|   -3.535973|   -4.105038|   -4.111454|   -3.611376|   -9.328521|    1.979092|
|         502|  1.2352e+00|   -3.510347|   -3.543963|   -4.112648|   -4.118583|   -3.618386|   -9.328502|    1.987054|
|         503|  1.2349e+00|   -3.517596|   -3.552036|   -4.120325|   -4.125780|   -3.625458|   -9.328317|    1.995211|
|         504|  1.2348e+00|   -3.524910|   -3.560217|   -4.128101|   -4.133064|   -3.632616|   -9.327952|    2.003560|
|         505|  1.2346e+00|   -3.532287|   -3.568496|   -4.135953|   -4.140417|   -3.639848|   -9.327401|    2.012097|
|         506|  1.2344e+00|   -3.539728|   -3.576883|   -4.143873|   -4.147842|   -3.647159|   -9.326645|    2.020818|
|         507|  1.2342e+00|   -3.547232|   -3.585375|   -4.151828|   -4.155318|   -3.654543|   -9.325652|    2.029719|
|         508|  1.2339e+00|   -3.554783|   -3.593966|   -4.159819|   -4.162837|   -3.661991|   -9.324369|    2.038795|
|         509|  1.2338e+00|   -3.562380|   -3.602661|   -4.167851|   -4.170420|   -3.669506|   -9.322746|    2.048043|
|         510|  1.2335e+00|   -3.570042|   -3.611474|   -4.175950|   -4.178069|   -3.677106|   -9.320742|    2.057458|
|         511|  1.2334e+00|   -3.577734|   -3.620390|   -4.184071|   -4.185807|   -3.684771|   -9.318295|    2.067037|
|         512|  1.2332e+00|   -3.585468|   -3.629392|   -4.192221|   -4.193636|   -3.692504|   -9.315363|    2.076775|
|         513|  1.2330e+00|   -3.593299|   -3.638505|   -4.200460|   -4.201551|   -3.700352|   -9.311892|    2.086668|
|         514|  1.2328e+00|   -3.601207|   -3.647740|   -4.208761|   -4.209529|   -3.708307|   -9.307831|    2.096714|
|         515|  1.2326e+00|   -3.609178|   -3.657069|   -4.217090|   -4.217593|   -3.716350|   -9.303143|    2.106908|
|         516|  1.2324e+00|   -3.617191|   -3.666527|   -4.225421|   -4.225729|   -3.724476|   -9.297826|    2.117249|
|         517|  1.2323e+00|   -3.625255|   -3.676146|   -4.233755|   -4.233920|   -3.732701|   -9.291878|    2.127733|
|         518|  1.2321e+00|   -3.633361|   -3.685942|   -4.242124|   -4.242161|   -3.741024|   -9.285304|    2.138357|
|         519|  1.2319e+00|   -3.641450|   -3.695894|   -4.250507|   -4.250411|   -3.749402|   -9.278147|    2.149118|
|         520|  1.2317e+00|   -3.649510|   -3.705980|   -4.258902|   -4.258640|   -3.757818|   -9.270464|    2.160014|
|         521|  1.2314e+00|   -3.657564|   -3.716204|   -4.267295|   -4.266863|   -3.766284|   -9.262304|    2.171043|
|         522|  1.2313e+00|   -3.665614|   -3.726573|   -4.275669|   -4.275081|   -3.774809|   -9.253736|    2.182201|
|         523|  1.2311e+00|   -3.673648|   -3.737069|   -4.283994|   -4.283284|   -3.783379|   -9.244844|    2.193485|
|         524|  1.2309e+00|   -3.681669|   -3.747689|   -4.292274|   -4.291509|   -3.791997|   -9.235693|    2.204893|
|         525|  1.2307e+00|   -3.689651|   -3.758402|   -4.300471|   -4.299764|   -3.800642|   -9.226352|    2.216422|
|         526|  1.2305e+00|   -3.697589|   -3.769197|   -4.308601|   -4.307991|   -3.809313|   -9.216905|    2.228068|
|         527|  1.2303e+00|   -3.705503|   -3.780064|   -4.316656|   -4.316173|   -3.818022|   -9.207434|    2.239827|
|         528|  1.2301e+00|   -3.713360|   -3.790989|   -4.324623|   -4.324279|   -3.826753|   -9.198011|    2.251697|
|         529|  1.2299e+00|   -3.721171|   -3.801977|   -4.332554|   -4.332292|   -3.835521|   -9.188702|    2.263672|
|         530|  1.2297e+00|   -3.728910|   -3.813021|   -4.340442|   -4.340204|   -3.844310|   -9.179562|    2.275749|
|         531|  1.2295e+00|   -3.736653|   -3.824154|   -4.348262|   -4.348024|   -3.853179|   -9.170650|    2.287922|
|         532|  1.2293e+00|   -3.744365|   -3.835375|   -4.355984|   -4.355680|   -3.862103|   -9.162037|    2.300188|
|         533|  1.2292e+00|   -3.752051|   -3.846717|   -4.363590|   -4.363187|   -3.871095|   -9.153752|    2.312540|
|         534|  1.2292e+00|   -3.759653|   -3.858176|   -4.371007|   -4.370482|   -3.880119|   -9.145831|    2.324972|
|         535|  1.2291e+00|   -3.767078|   -3.869709|   -4.378226|   -4.377529|   -3.889100|   -9.138299|    2.337480|
|         536|  1.2290e+00|   -3.774308|   -3.881272|   -4.385253|   -4.384364|   -3.898015|   -9.131184|    2.350056|
|         537|  1.2289e+00|   -3.781299|   -3.892824|   -4.392016|   -4.390972|   -3.906833|   -9.124509|    2.362694|
|         538|  1.2288e+00|   -3.788066|   -3.904327|   -4.398554|   -4.397378|   -3.915558|   -9.118324|    2.375387|
[...]
|        7919|  1.1874e+00|   -7.844286|   -7.849790|   -8.451234|   -8.418296|   -7.951940|   -9.949923|    2.518179|
|        7920|  1.1874e+00|   -7.845954|   -7.849645|   -8.454041|   -8.420295|   -7.952502|   -9.949513|    2.518179|
|        7921|  1.1874e+00|   -7.847660|   -7.849583|   -8.456938|   -8.422396|   -7.953131|   -9.949262|    2.518179|
|        7922|  1.1874e+00|   -7.849397|   -7.849601|   -8.459921|   -8.424598|   -7.953824|   -9.949169|    2.518179|
|        7923|  1.1874e+00|   -7.851163|   -7.849699|   -8.462984|   -8.426896|   -7.954580|   -9.949232|    2.518179|
|        7924|  1.1874e+00|   -7.852950|   -7.849874|   -8.466120|   -8.429287|   -7.955396|   -9.949448|    2.518179|
|        7925|  1.1874e+00|   -7.854754|   -7.850125|   -8.469322|   -8.431767|   -7.956270|   -9.949815|    2.518179|
|        7926|  1.1874e+00|   -7.856568|   -7.850451|   -8.472584|   -8.434333|   -7.957199|   -9.950331|    2.518179|
|        7927|  1.1874e+00|   -7.858388|   -7.850848|   -8.475898|   -8.436979|   -7.958181|   -9.950993|    2.518179|
|        7928|  1.1873e+00|   -7.860207|   -7.851316|   -8.479255|   -8.439701|   -7.959213|   -9.951799|    2.518178|
|        7929|  1.1873e+00|   -7.862020|   -7.851853|   -8.482647|   -8.442493|   -7.960291|   -9.952745|    2.518178|
|        7930|  1.1873e+00|   -7.863820|   -7.852455|   -8.486066|   -8.445352|   -7.961414|   -9.953828|    2.518178|
|        7931|  1.1873e+00|   -7.865601|   -7.853121|   -8.489501|   -8.448271|   -7.962578|   -9.955046|    2.518178|
|        7932|  1.1873e+00|   -7.867359|   -7.853848|   -8.492943|   -8.451243|   -7.963780|   -9.956395|    2.518178|
|        7933|  1.1873e+00|   -7.869085|   -7.854634|   -8.496381|   -8.454264|   -7.965018|   -9.957871|    2.518178|
|        7934|  1.1873e+00|   -7.870776|   -7.855476|   -8.499806|   -8.457327|   -7.966287|   -9.959471|    2.518177|
|        7935|  1.1873e+00|   -7.872424|   -7.856371|   -8.503206|   -8.460424|   -7.967584|   -9.961191|    2.518177|
|        7936|  1.1873e+00|   -7.874023|   -7.857317|   -8.506569|   -8.463549|   -7.968907|   -9.963027|    2.518177|
|        7937|  1.1873e+00|   -7.875570|   -7.858310|   -8.509885|   -8.466694|   -7.970252|   -9.964974|    2.518177|
|        7938|  1.1873e+00|   -7.877058|   -7.859349|   -8.513142|   -8.469852|   -7.971615|   -9.967029|    2.518176|
|        7939|  1.1873e+00|   -7.878482|   -7.860429|   -8.516327|   -8.473014|   -7.972993|   -9.969185|    2.518176|
|        7940|  1.1873e+00|   -7.879837|   -7.861549|   -8.519429|   -8.476173|   -7.974383|   -9.971439|    2.518176|
|        7941|  1.1872e+00|   -7.881119|   -7.862703|   -8.522437|   -8.479320|   -7.975782|   -9.973784|    2.518175|
|        7942|  1.1872e+00|   -7.882323|   -7.863891|   -8.525337|   -8.482447|   -7.977185|   -9.976216|    2.518175|
|        7943|  1.1872e+00|   -7.883446|   -7.865107|   -8.528118|   -8.485544|   -7.978590|   -9.978728|    2.518174|
|        7944|  1.1872e+00|   -7.884484|   -7.866350|   -8.530770|   -8.488603|   -7.979993|   -9.981315|    2.518174|
|        7945|  1.1872e+00|   -7.885434|   -7.867615|   -8.533279|   -8.491615|   -7.981391|   -9.983970|    2.518174|
|        7946|  1.1872e+00|   -7.886293|   -7.868900|   -8.535637|   -8.494570|   -7.982780|   -9.986686|    2.518173|
|        7947|  1.1872e+00|   -7.887058|   -7.870201|   -8.537833|   -8.497459|   -7.984158|   -9.989457|    2.518173|
|        7948|  1.1872e+00|   -7.887729|   -7.871515|   -8.539857|   -8.500274|   -7.985520|   -9.992274|    2.518172|
|        7949|  1.1872e+00|   -7.888303|   -7.872838|   -8.541702|   -8.503005|   -7.986865|   -9.995131|    2.518172|
|        7950|  1.1872e+00|   -7.888781|   -7.874167|   -8.543360|   -8.505643|   -7.988189|   -9.998020|    2.518171|
+-----------------------------------------------------------------------+
|        File Writing Summary       |              Filename             |
+-----------------------------------------------------------------------+
|SU2 binary restart                 |restart_flow.dat                   |
|Paraview                           |flow.vtu                           |
|Paraview surface                   |surface_flow.vtu                   |
+-----------------------------------------------------------------------+
+--------------------------------------------------------------------------------------------------------------------+
|  Inner_Iter|   Time(sec)|    rms[Rho]|   rms[RhoU]|   rms[RhoV]|   rms[RhoW]|   rms[RhoE]|     rms[nu]|          CD|
+--------------------------------------------------------------------------------------------------------------------+
|        7951|  1.1880e+00|   -7.889161|   -7.875499|   -8.544824|   -8.508180|   -7.989489|  -10.000933|    2.518170|
|        7952|  1.1880e+00|   -7.889445|   -7.876831|   -8.546089|   -8.510608|   -7.990763|  -10.003860|    2.518170|
|        7953|  1.1880e+00|   -7.889632|   -7.878159|   -8.547151|   -8.512918|   -7.992009|  -10.006794|    2.518169|
|        7954|  1.1880e+00|   -7.889724|   -7.879480|   -8.548007|   -8.515103|   -7.993223|  -10.009725|    2.518169|
|        7955|  1.1880e+00|   -7.889724|   -7.880792|   -8.548655|   -8.517157|   -7.994404|  -10.012646|    2.518168|
|        7956|  1.1880e+00|   -7.889632|   -7.882091|   -8.549096|   -8.519072|   -7.995550|  -10.015545|    2.518167|
|        7957|  1.1880e+00|   -7.889453|   -7.883375|   -8.549329|   -8.520844|   -7.996659|  -10.018414|    2.518167|
|        7958|  1.1880e+00|   -7.889189|   -7.884641|   -8.549357|   -8.522467|   -7.997730|  -10.021244|    2.518166|
|        7959|  1.1880e+00|   -7.888843|   -7.885886|   -8.549184|   -8.523937|   -7.998762|  -10.024024|    2.518165|
|        7960|  1.1880e+00|   -7.888421|   -7.887109|   -8.548814|   -8.525250|   -7.999753|  -10.026747|    2.518165|
|        7961|  1.1880e+00|   -7.887926|   -7.888306|   -8.548254|   -8.526405|   -8.000702|  -10.029401|    2.518164|
|        7962|  1.1881e+00|   -7.887363|   -7.889476|   -8.547510|   -8.527399|   -8.001610|  -10.031977|    2.518163|
|        7963|  1.1881e+00|   -7.886736|   -7.890617|   -8.546590|   -8.528231|   -8.002476|  -10.034468|    2.518163|
|        7964|  1.1881e+00|   -7.886053|   -7.891728|   -8.545502|   -8.528903|   -8.003300|  -10.036862|    2.518162|
|        7965|  1.1881e+00|   -7.885317|   -7.892807|   -8.544258|   -8.529414|   -8.004082|  -10.039153|    2.518161|
|        7966|  1.1881e+00|   -7.884536|   -7.893854|   -8.542866|   -8.529767|   -8.004823|  -10.041332|    2.518160|
|        7967|  1.1881e+00|   -7.883714|   -7.894866|   -8.541338|   -8.529965|   -8.005524|  -10.043390|    2.518160|
|        7968|  1.1881e+00|   -7.882858|   -7.895844|   -8.539685|   -8.530011|   -8.006186|  -10.045321|    2.518159|
|        7969|  1.1881e+00|   -7.881973|   -7.896788|   -8.537919|   -8.529911|   -8.006809|  -10.047119|    2.518158|
|        7970|  1.1881e+00|   -7.881067|   -7.897695|   -8.536051|   -8.529667|   -8.007396|  -10.048776|    2.518157|
|        7971|  1.1881e+00|   -7.880144|   -7.898568|   -8.534095|   -8.529288|   -8.007948|  -10.050288|    2.518156|
|        7972|  1.1881e+00|   -7.879212|   -7.899406|   -8.532061|   -8.528779|   -8.008467|  -10.051651|    2.518156|
|        7973|  1.1881e+00|   -7.878277|   -7.900209|   -8.529961|   -8.528148|   -8.008956|  -10.052860|    2.518155|
|        7974|  1.1881e+00|   -7.877343|   -7.900978|   -8.527809|   -8.527401|   -8.009415|  -10.053913|    2.518154|
|        7975|  1.1880e+00|   -7.876418|   -7.901713|   -8.525616|   -8.526547|   -8.009848|  -10.054808|    2.518153|
|        7976|  1.1880e+00|   -7.875507|   -7.902417|   -8.523392|   -8.525595|   -8.010258|  -10.055544|    2.518152|
|        7977|  1.1880e+00|   -7.874616|   -7.903089|   -8.521150|   -8.524552|   -8.010647|  -10.056122|    2.518151|
|        7978|  1.1880e+00|   -7.873751|   -7.903732|   -8.518900|   -8.523428|   -8.011018|  -10.056541|    2.518150|
|        7979|  1.1880e+00|   -7.872917|   -7.904348|   -8.516653|   -8.522231|   -8.011374|  -10.056804|    2.518150|
|        7980|  1.1880e+00|   -7.872120|   -7.904937|   -8.514419|   -8.520972|   -8.011718|  -10.056913|    2.518149|
|        7981|  1.1880e+00|   -7.871364|   -7.905502|   -8.512207|   -8.519658|   -8.012054|  -10.056873|    2.518148|
|        7982|  1.1880e+00|   -7.870654|   -7.906046|   -8.510027|   -8.518299|   -8.012385|  -10.056686|    2.518147|
|        7983|  1.1880e+00|   -7.869997|   -7.906570|   -8.507888|   -8.516904|   -8.012714|  -10.056360|    2.518146|
|        7984|  1.1880e+00|   -7.869396|   -7.907078|   -8.505797|   -8.515482|   -8.013044|  -10.055899|    2.518145|
|        7985|  1.1880e+00|   -7.868856|   -7.907571|   -8.503764|   -8.514041|   -8.013379|  -10.055310|    2.518144|
|        7986|  1.1880e+00|   -7.868381|   -7.908053|   -8.501796|   -8.512591|   -8.013724|  -10.054600|    2.518143|
|        7987|  1.1880e+00|   -7.867975|   -7.908526|   -8.499898|   -8.511139|   -8.014080|  -10.053777|    2.518142|
|        7988|  1.1880e+00|   -7.867643|   -7.908994|   -8.498080|   -8.509693|   -8.014452|  -10.052848|    2.518141|
|        7989|  1.1880e+00|   -7.867388|   -7.909459|   -8.496345|   -8.508262|   -8.014843|  -10.051824|    2.518141|
|        7990|  1.1880e+00|   -7.867214|   -7.909924|   -8.494701|   -8.506852|   -8.015257|  -10.050711|    2.518140|
|        7991|  1.1880e+00|   -7.867125|   -7.910393|   -8.493153|   -8.505472|   -8.015697|  -10.049519|    2.518139|
|        7992|  1.1880e+00|   -7.867124|   -7.910870|   -8.491705|   -8.504128|   -8.016169|  -10.048258|    2.518138|
|        7993|  1.1879e+00|   -7.867214|   -7.911357|   -8.490361|   -8.502826|   -8.016672|  -10.046937|    2.518137|
|        7994|  1.1879e+00|   -7.867397|   -7.911857|   -8.489127|   -8.501573|   -8.017211|  -10.045564|    2.518136|
|        7995|  1.1879e+00|   -7.867675|   -7.912373|   -8.488005|   -8.500375|   -8.017788|  -10.044150|    2.518135|
|        7996|  1.1879e+00|   -7.868051|   -7.912907|   -8.487001|   -8.499237|   -8.018407|  -10.042704|    2.518134|
|        7997|  1.1879e+00|   -7.868527|   -7.913464|   -8.486117|   -8.498164|   -8.019070|  -10.041234|    2.518133|
|        7998|  1.1879e+00|   -7.869106|   -7.914045|   -8.485358|   -8.497162|   -8.019781|  -10.039750|    2.518133|
|        7999|  1.1879e+00|   -7.869790|   -7.914655|   -8.484726|   -8.496235|   -8.020542|  -10.038260|    2.518132|
|        8000|  1.1879e+00|   -7.870581|   -7.915296|   -8.484224|   -8.495387|   -8.021356|  -10.036774|    2.518131|
|        8001|  1.1879e+00|   -7.871480|   -7.915971|   -8.483854|   -8.494624|   -8.022227|  -10.035299|    2.518130|
|        8002|  1.1879e+00|   -7.872489|   -7.916683|   -8.483621|   -8.493948|   -8.023156|  -10.033844|    2.518129|
|        8003|  1.1879e+00|   -7.873610|   -7.917435|   -8.483524|   -8.493363|   -8.024145|  -10.032417|    2.518128|
|        8004|  1.1879e+00|   -7.874844|   -7.918229|   -8.483567|   -8.492874|   -8.025198|  -10.031024|    2.518127|
|        8005|  1.1879e+00|   -7.876191|   -7.919068|   -8.483751|   -8.492482|   -8.026316|  -10.029674|    2.518127|
|        8006|  1.1879e+00|   -7.877654|   -7.919955|   -8.484077|   -8.492190|   -8.027502|  -10.028374|    2.518126|
|        8007|  1.1879e+00|   -7.879232|   -7.920892|   -8.484547|   -8.492002|   -8.028756|  -10.027129|    2.518125|
|        8008|  1.1878e+00|   -7.880926|   -7.921882|   -8.485161|   -8.491918|   -8.030081|  -10.025947|    2.518124|
|        8009|  1.1878e+00|   -7.882736|   -7.922926|   -8.485921|   -8.491942|   -8.031477|  -10.024834|    2.518123|
|        8010|  1.1878e+00|   -7.884663|   -7.924026|   -8.486826|   -8.492076|   -8.032947|  -10.023794|    2.518122|
|        8011|  1.1878e+00|   -7.886705|   -7.925184|   -8.487878|   -8.492320|   -8.034491|  -10.022835|    2.518122|
|        8012|  1.1878e+00|   -7.888864|   -7.926403|   -8.489077|   -8.492675|   -8.036111|  -10.021961|    2.518121|
|        8013|  1.1878e+00|   -7.891138|   -7.927683|   -8.490422|   -8.493144|   -8.037806|  -10.021176|    2.518120|
|        8014|  1.1878e+00|   -7.893526|   -7.929027|   -8.491914|   -8.493728|   -8.039578|  -10.020486|    2.518119|
|        8015|  1.1878e+00|   -7.896028|   -7.930435|   -8.493552|   -8.494426|   -8.041428|  -10.019896|    2.518119|
|        8016|  1.1878e+00|   -7.898642|   -7.931909|   -8.495335|   -8.495239|   -8.043354|  -10.019409|    2.518118|
|        8017|  1.1878e+00|   -7.901367|   -7.933450|   -8.497264|   -8.496168|   -8.045358|  -10.019029|    2.518117|
|        8018|  1.1878e+00|   -7.904202|   -7.935058|   -8.499337|   -8.497212|   -8.047439|  -10.018760|    2.518117|
|        8019|  1.1878e+00|   -7.907143|   -7.936735|   -8.501552|   -8.498372|   -8.049597|  -10.018605|    2.518116|
|        8020|  1.1878e+00|   -7.910189|   -7.938481|   -8.503909|   -8.499647|   -8.051831|  -10.018568|    2.518115|
|        8021|  1.1878e+00|   -7.913337|   -7.940296|   -8.506405|   -8.501036|   -8.054140|  -10.018653|    2.518115|
|        8022|  1.1878e+00|   -7.916584|   -7.942181|   -8.509039|   -8.502540|   -8.056524|  -10.018861|    2.518114|
|        8023|  1.1878e+00|   -7.919927|   -7.944135|   -8.511808|   -8.504156|   -8.058980|  -10.019195|    2.518113|
|        8024|  1.1878e+00|   -7.923361|   -7.946159|   -8.514710|   -8.505883|   -8.061508|  -10.019659|    2.518113|
|        8025|  1.1878e+00|   -7.926883|   -7.948251|   -8.517741|   -8.507721|   -8.064105|  -10.020254|    2.518112|
|        8026|  1.1877e+00|   -7.930488|   -7.950411|   -8.520899|   -8.509666|   -8.066770|  -10.020983|    2.518112|
|        8027|  1.1877e+00|   -7.934171|   -7.952638|   -8.524179|   -8.511718|   -8.069499|  -10.021847|    2.518111|
|        8028|  1.1877e+00|   -7.937926|   -7.954932|   -8.527578|   -8.513874|   -8.072290|  -10.022850|    2.518111|
|        8029|  1.1877e+00|   -7.941748|   -7.957291|   -8.531090|   -8.516130|   -8.075141|  -10.023992|    2.518110|
|        8030|  1.1877e+00|   -7.945630|   -7.959712|   -8.534712|   -8.518486|   -8.078046|  -10.025275|    2.518110|
|        8031|  1.1877e+00|   -7.949564|   -7.962196|   -8.538436|   -8.520936|   -8.081004|  -10.026701|    2.518109|
|        8032|  1.1877e+00|   -7.953543|   -7.964738|   -8.542258|   -8.523478|   -8.084009|  -10.028271|    2.518109|
|        8033|  1.1877e+00|   -7.957559|   -7.967338|   -8.546170|   -8.526108|   -8.087058|  -10.029986|    2.518108|
|        8034|  1.1877e+00|   -7.961604|   -7.969992|   -8.550165|   -8.528822|   -8.090145|  -10.031848|    2.518108|
|        8035|  1.1877e+00|   -7.965667|   -7.972698|   -8.554236|   -8.531615|   -8.093265|  -10.033857|    2.518107|
|        8036|  1.1877e+00|   -7.969740|   -7.975452|   -8.558373|   -8.534482|   -8.096413|  -10.036014|    2.518107|
|        8037|  1.1877e+00|   -7.973811|   -7.978251|   -8.562567|   -8.537419|   -8.099582|  -10.038320|    2.518107|
|        8038|  1.1877e+00|   -7.977869|   -7.981092|   -8.566809|   -8.540418|   -8.102767|  -10.040776|    2.518106|
|        8039|  1.1877e+00|   -7.981903|   -7.983970|   -8.571087|   -8.543475|   -8.105961|  -10.043381|    2.518106|
|        8040|  1.1876e+00|   -7.985901|   -7.986880|   -8.575390|   -8.546583|   -8.109156|  -10.046136|    2.518105|
|        8041|  1.1876e+00|   -7.989849|   -7.989819|   -8.579706|   -8.549734|   -8.112346|  -10.049041|    2.518105|
|        8042|  1.1876e+00|   -7.993736|   -7.992781|   -8.584021|   -8.552922|   -8.115521|  -10.052096|    2.518105|
|        8043|  1.1876e+00|   -7.997547|   -7.995761|   -8.588323|   -8.556139|   -8.118675|  -10.055301|    2.518105|
|        8044|  1.1876e+00|   -8.001268|   -7.998753|   -8.592595|   -8.559376|   -8.121798|  -10.058655|    2.518104|

----------------------------- Solver Exit -------------------------------
All convergence criteria satisfied.
+-----------------------------------------------------------------------+
|      Convergence Field     |     Value    |   Criterion  |  Converged |
+-----------------------------------------------------------------------+
|                    rms[Rho]|      -8.00127|          < -8|         Yes|
+-----------------------------------------------------------------------+
-------------------------------------------------------------------------
+-----------------------------------------------------------------------+
|        File Writing Summary       |              Filename             |
+-----------------------------------------------------------------------+
|SU2 binary restart                 |restart_flow.dat                   |
|Paraview                           |flow.vtu                           |
|Paraview surface                   |surface_flow.vtu                   |
+-----------------------------------------------------------------------+

------------------------- Solver Postprocessing -------------------------
Deleted CNumerics container.
Deleted CIntegration container.
Deleted CSolver container.
Deleted CIteration container.
Deleted CInterface container.
Deleted CGeometry container.
Deleted CFreeFormDefBox class.
Deleted CSurfaceMovement class.
Deleted CVolumetricMovement class.
Deleted CConfig container.
Deleted nInst container.
Deleted COutput class.
-------------------------------------------------------------------------

------------------------- Exit Success (SU2_CFD) ------------------------


scontrol show job 1178736
JobId=1178736 JobName=m3_coarse
   UserId=anthonyy(3152141) GroupId=anthonyy(3152141) MCS_label=N/A
   Priority=531094 Nice=0 Account=rrg-jphickey QOS=normal
   JobState=COMPLETING Reason=None Dependency=(null)
   Requeue=0 Restarts=0 BatchFlag=1 Reboot=0 ExitCode=0:0
   RunTime=02:40:29 TimeLimit=18:00:00 TimeMin=N/A
   SubmitTime=2026-03-15T00:56:12 EligibleTime=2026-03-15T00:56:12
   AccrueTime=2026-03-15T00:56:12
   StartTime=2026-03-15T01:24:34 EndTime=2026-03-15T04:05:03 Deadline=N/A
   SuspendTime=None SecsPreSuspend=0 LastSchedEval=2026-03-15T01:24:34 Scheduler=Main
   Partition=compute AllocNode:Sid=tri-login06:1449538
   ReqNodeList=(null) ExcNodeList=(null)
   NodeList=tri[0978,1007]
   BatchHost=tri0978
   NumNodes=2 NumCPUs=384 NumTasks=128 CPUs/Task=1 ReqB:S:C:T=0:0:*:*
   ReqTRES=cpu=128,mem=1534000M,node=2,billing=128
   AllocTRES=cpu=384,mem=1534000M,node=2,billing=384
   Socks/Node=* NtasksPerN:B:S:C=64:0:*:* CoreSpec=*
   MinCPUsNode=64 MinMemoryNode=767000M MinTmpDiskNode=0
   Features=(null) DelayBoot=00:00:00
   OverSubscribe=NO Contiguous=0 Licenses=(null) Network=(null)
   Command=/scratch/anthonyy/reentry/orion/config/run.sh
   WorkDir=/scratch/anthonyy/reentry/orion/cases/m3_coarse
   Comment=/opt/slurm/bin/sbatch --export=NONE --get-user-env=L --job-name m3_coarse --nodes 2 --ntasks-per-node 64 --cpus-per-task 1 --mem 0 --time 18:00:00 --account rrg-jphickey --output orion_%j.out --error orion_%j.err --chdir /scratch/anthonyy/reentry/orion/cases/m3_coarse /scratch/anthonyy/reentry/orion/config/run.sh /scratch/anthonyy/reentry/orion/config/generated/m3_coarse.cfg 
   StdErr=/scratch/anthonyy/reentry/orion/cases/m3_coarse/orion_1178736.err
   StdIn=/dev/null
   StdOut=/scratch/anthonyy/reentry/orion/cases/m3_coarse/orion_1178736.out
   TresPerTask=cpu=1
   

sacct -j 1178736
JobID           JobName    Account    Elapsed  MaxVMSize     MaxRSS  SystemCPU    UserCPU ExitCode 
------------ ---------- ---------- ---------- ---------- ---------- ---------- ---------- -------- 
1178736       m3_coarse rrg-jphic+   02:40:29                         01:18:23 13-23:55:+      0:0 
1178736.bat+      batch rrg-jphic+   02:40:29          0     10876K  00:00.137  00:00.598      0:0 
1178736.ext+     extern rrg-jphic+   02:40:29          0          0   00:00:00   00:00:00      0:0 
1178736.0       SU2_CFD rrg-jphic+   02:40:23          0   2202564K   01:18:23 13-23:55:+      0:0 

