Nodes: tri[1042,1182]
Tasks: 128
NPN:   64

-------------------------------------------------------------------------
|    ___ _   _ ___                                                      |
|   / __| | | |_  )   Release 7.5.1 "Blackbird"                         |
|   \__ \ |_| |/ /                                                      |
|   |___/\___//___|   Suite (Computational Fluid Dynamics Code)         |
|                                                                       |
-------------------------------------------------------------------------
| SU2 Project Website: https://su2code.github.io                        |
|                                                                       |
| The SU2 Project is maintained by the SU2 Foundation                   |
| (http://su2foundation.org)                                            |
-------------------------------------------------------------------------
| Copyright 2012-2023, SU2 Contributors                                 |
|                                                                       |
| SU2 is free software; you can redistribute it and/or                  |
| modify it under the terms of the GNU Lesser General Public            |
| License as published by the Free Software Foundation; either          |
| version 2.1 of the License, or (at your option) any later version.    |
|                                                                       |
| SU2 is distributed in the hope that it will be useful,                |
| but WITHOUT ANY WARRANTY; without even the implied warranty of        |
| MERCHANTABILITY or FITNESS FOR A PARTICULAR PURPOSE. See the GNU      |
| Lesser General Public License for more details.                       |
|                                                                       |
| You should have received a copy of the GNU Lesser General Public      |
| License along with SU2. If not, see <http://www.gnu.org/licenses/>.   |
-------------------------------------------------------------------------

Parsing config file for zone 0

----------------- Physical Case Definition ( Zone 0 ) -------------------
Compressible RANS equations.
Turbulence model: Spalart-Allmaras-noft2
Hybrid RANS/LES: No Hybrid RANS/LES
Mach number: 6.
Angle of attack (AoA): 15 deg, and angle of sideslip (AoS): 0 deg.
Reynolds number: 6.86229e+08. Reference length 5.
Reading and writing binary SU2 native restart files.
Read flow solution from: restart_flow.dat.
Non-Dimensional simulation (V=1.0, Rho=1.0, T=1.0 at the farfield).
The reference area will be computed using y(2D) or z(3D) projection.
The semi-span will be computed using the max y(3D) value.
The reference length is 0.64607 m.
Reference origin for moment evaluation is (0.25, 0, 0).
Surface(s) where the force coefficients are evaluated: ORION_SURFACE.

Input mesh file name: fine.su2

--------------- Space Numerical Integration ( Zone 0 ) ------------------
Jameson-Schmidt-Turkel scheme (2nd order in space) for the flow inviscid terms.
JST viscous coefficients (2nd & 4th): 0.5, 0.02.
The method includes a grid stretching correction (p = 0.3).
Scalar upwind solver for the turbulence model.
First order integration in space.
Average of gradients with correction (viscous flow terms).
Average of gradients with correction (viscous turbulence terms).
Gradient for upwind reconstruction: Green-Gauss.
Gradient for viscous and source terms: Green-Gauss.

--------------- Time Numerical Integration  ( Zone 0 ) ------------------
Local time stepping (steady state simulation).
Euler implicit method for the flow equations.
FGMRES is used for solving the linear system.
Using a ILU(0) preconditioning.
Convergence criteria of the linear solver: 1e-06.
Max number of linear iterations: 100.
CFL adaptation. Factor down: 0.5, factor up: 1.1,
                lower limit: 0.05, upper limit: 0.5,
                acceptable linear residual: 0.001.
Courant-Friedrichs-Lewy number:     0.03
Euler implicit time integration for the turbulence model.

------------------ Convergence Criteria  ( Zone 0 ) ---------------------
Maximum number of solver subiterations: 999999.
Begin convergence monitoring at iteration 5.
Residual minimum value: 1e-8.
Cauchy series min. value: 1e-10.
Number of Cauchy elements: 100.
Begin windowed time average at iteration 0.

-------------------- Output Information ( Zone 0 ) ----------------------
File writing frequency: 
+------------------------------------+
|                     File| Frequency|
+------------------------------------+
|                  RESTART|       150|
|                 PARAVIEW|       150|
|         SURFACE_PARAVIEW|       150|
+------------------------------------+
Writing the convergence history file every 1 inner iterations.
Writing the screen convergence history every 1 inner iterations.
The tabular file format is CSV (.csv).
Convergence history file name: history.
Forces breakdown file name: forces_breakdown.dat.
Surface file name: surface_flow.
Volume file name: flow.
Restart file name: restart_flow.

------------- Config File Boundary Information ( Zone 0 ) ---------------
+-----------------------------------------------------------------------+
|                        Marker Type|                        Marker Name|
+-----------------------------------------------------------------------+
|                          Far-field|                           FARFIELD|
+-----------------------------------------------------------------------+
|                     Heat flux wall|                      ORION_SURFACE|
+-----------------------------------------------------------------------+

-------------------- Output Preprocessing ( Zone 0 ) --------------------

WARNING: SURFACE_PRESSURE_DROP can only be computed for at least 2 surfaces (outlet, inlet, ...)

Screen output fields: INNER_ITER, WALL_TIME, MIN_DELTA_TIME, MAX_DELTA_TIME, MIN_CFL, MAX_CFL, AVG_CFL, RMS_DENSITY, RMS_MOMENTUM-X, RMS_MOMENTUM-Y, RMS_MOMENTUM-Z, RMS_ENERGY, RMS_NU_TILDE, DRAG
History output group(s): ITER, RMS_RES
Convergence field(s): RMS_DENSITY
Warning: No (valid) fields chosen for time convergence monitoring. Time convergence monitoring inactive.
Volume output fields: MACH, PRESSURE, TEMPERATURE, DENSITY, HEAT_FLUX, Y_PLUS, COORDINATES, SOLUTION

------------------- Geometry Preprocessing ( Zone 0 ) -------------------
Three dimensional problem.
62211324 grid points before partitioning.
190879888 volume elements before partitioning.
2 surface markers.
4104 boundary elements in index 0 (Marker = FARFIELD).
1824836 boundary elements in index 1 (Marker = ORION_SURFACE).
Executing the partitioning functions.
Building the graph adjacency structure.
Calling ParMETIS... graph partitioning complete (4959327 edge cuts).
Distributing ParMETIS coloring.
Rebalancing vertices.
Rebalancing volume element connectivity.
Rebalancing markers and surface elements.
66952290 vertices including ghost points. 
197997438 interior elements including halo cells. 
103171259 tetrahedra.
94500655 prisms.
325524 pyramids.
Establishing MPI communication patterns.
Setting point connectivity.
Renumbering points (Reverse Cuthill McKee Ordering).
Recomputing point connectivity.
Setting element connectivity.
Checking the numerical grid orientation.
All volume elements are correctly orientend.
All surface elements are correctly orientend.
Identifying edges and vertices.
Setting the control volume structure.
Volume of the computational grid: 535693.
Searching for the closest normal neighbors to the surfaces.
Storing a mapping from global to local point index.
Compute the surface curvature.
Max K: 132.896. Mean K: 3.9104. Standard deviation K: 7.49569.
Checking for periodicity.
Computing mesh quality statistics for the dual control volumes.
+--------------------------------------------------------------+
|           Mesh Quality Metric|        Minimum|        Maximum|
+--------------------------------------------------------------+
|    Orthogonality Angle (deg.)|        53.0661|             90|
|     CV Face Area Aspect Ratio|        1.01143|        75298.5|
|           CV Sub-Volume Ratio|        1.00029|        45.0258|
+--------------------------------------------------------------+
Finding max control volume width.
Communicating number of neighbors.
Reference area = 11.531 m^2.
Semi-span length = 2.49999 m.
Wetted area = 57.9072 m^2.
Area projection in the x-plane = 19.6343 m^2, y-plane = 11.531 m^2, z-plane = 11.531 m^2.
Max. coordinate in the x-direction = 2.575 m, y-direction = 2.49999 m, z-direction = 2.49999 m.
Min. coordinate in the x-direction = -0.71 m, y-direction = -2.49999 m, z-direction = -2.5 m.
Computing wall distances.

-------------------- Solver Preprocessing ( Zone 0 ) --------------------
Viscous flow: Computing pressure using the ideal gas law
based on the free-stream temperature and a density computed
from the Reynolds number.
Force coefficients computed using free-stream values.

-- Models:
+------------------------------------------------------------------------------+
|          Viscosity Model|        Conductivity Model|              Fluid Model|
+------------------------------------------------------------------------------+
|               SUTHERLAND|          CONSTANT_PRANDTL|             STANDARD_AIR|
+------------------------------------------------------------------------------+
-- Fluid properties:
+------------------------------------------------------------------------------+
|                  Name|    Dim. value|    Ref. value|      Unit|Non-dim. value|
+------------------------------------------------------------------------------+
|        Ref. Viscosity|     1.716e-05|       2455.73|   N.s/m^2|   6.98773e-09|
|      Sutherland Temp.|        273.15|        288.15|         K|      0.947944|
|     Sutherland Const.|         110.4|        288.15|         K|      0.383134|
+------------------------------------------------------------------------------+
|        Prandtl (Lam.)|             -|             -|         -|          0.72|
|       Prandtl (Turb.)|             -|             -|         -|           0.9|
+------------------------------------------------------------------------------+
|          Gas Constant|       287.058|       14467.7|  N.m/kg.K|     0.0198413|
|      Spec. Heat Ratio|             -|             -|         -|           1.4|
+------------------------------------------------------------------------------+
-- Initial and free-stream conditions:
+------------------------------------------------------------------------------+
|                  Name|    Dim. value|    Ref. value|      Unit|Non-dim. value|
+------------------------------------------------------------------------------+
|       Static Pressure|       99485.6|   5.01407e+06|        Pa|     0.0198413|
|               Density|       1.20274|       1.20274|    kg/m^3|             1|
|           Temperature|        288.15|        288.15|         K|             1|
|          Total Energy|   2.29123e+06|   4.16887e+06|   m^2/s^2|      0.549603|
|            Velocity-X|       1972.21|       2041.78|       m/s|      0.965926|
|            Velocity-Y|             0|       2041.78|       m/s|             0|
|            Velocity-Z|       528.452|       2041.78|       m/s|      0.258819|
|    Velocity Magnitude|       2041.78|       2041.78|       m/s|             1|
+------------------------------------------------------------------------------+
|             Viscosity|    1.7893e-05|       2455.73|   N.s/m^2|    7.2862e-09|
|          Conductivity|             -|   3.55289e+07|   W/m^2.K|             -|
|     Turb. Kin. Energy|       15633.3|   4.16887e+06|   m^2/s^2|       0.00375|
|     Spec. Dissipation|   1.05085e+08|       2041.78|       1/s|       51467.1|
+------------------------------------------------------------------------------+
|           Mach Number|             -|             -|         -|             6|
|       Reynolds Number|             -|             -|         -|   6.86229e+08|
+------------------------------------------------------------------------------+
Initialize Jacobian structure (Navier-Stokes). MG level: 0.
Initialize Jacobian structure (SA model).

------------------- Numerics Preprocessing ( Zone 0 ) -------------------

----------------- Integration Preprocessing ( Zone 0 ) ------------------

------------------- Iteration Preprocessing ( Zone 0 ) ------------------
Euler/Navier-Stokes/RANS fluid iteration.

------------------------------ Begin Solver -----------------------------

Simulation Run using the Single-zone Driver
WARNING: SU2 was not compiled for an AVX-capable architecture. Performance could be better,
         see https://su2code.github.io/docs_v7/Build-SU2-Linux-MacOS/#compiler-optimizations
+-------------------------------------------------------------------------------------------------------------------------------------------------------------------------------------+
|  Inner_Iter|   Time(sec)|      Min DT|      Max DT|     Min CFL|     Max CFL|     Avg CFL|    rms[Rho]|   rms[RhoU]|   rms[RhoV]|   rms[RhoW]|   rms[RhoE]|     rms[nu]|          CD|
+-------------------------------------------------------------------------------------------------------------------------------------------------------------------------------------+
|           0|  8.9822e+00|  3.4235e-10|  4.6274e-02|  5.0000e-02|  5.0000e-02|  5.0000e-02|   -4.647056|   -4.721799|   -5.301222|   -5.102222|   -4.918321|   -7.375433|    2.278409|
|           1|  7.8332e+00|  5.7059e-10|  7.7124e-02|  5.5000e-02|  5.5000e-02|  5.5000e-02|   -4.647099|   -4.721836|   -5.301284|   -5.102258|   -4.918384|   -7.375383|    2.278440|
|           2|  7.6758e+00|  6.2765e-10|  8.4836e-02|  6.0500e-02|  6.0500e-02|  6.0500e-02|   -4.647167|   -4.721896|   -5.301381|   -5.102315|   -4.918484|   -7.375401|    2.278476|
|           3|  7.5520e+00|  6.9041e-10|  9.3320e-02|  6.6550e-02|  6.6550e-02|  6.6550e-02|   -4.647241|   -4.721962|   -5.301486|   -5.102376|   -4.918592|   -7.375421|    2.278514|
|           4|  7.4578e+00|  7.5945e-10|  1.0265e-01|  7.3205e-02|  7.3205e-02|  7.3205e-02|   -4.647321|   -4.722034|   -5.301598|   -5.102442|   -4.918710|   -7.375443|    2.278557|
|           5|  7.3917e+00|  8.3540e-10|  1.1292e-01|  8.0526e-02|  8.0526e-02|  8.0526e-02|   -4.647408|   -4.722112|   -5.301718|   -5.102513|   -4.918837|   -7.375467|    2.278603|
|           6|  7.3645e+00|  9.1894e-10|  1.2421e-01|  8.8578e-02|  8.8578e-02|  8.8578e-02|   -4.647503|   -4.722198|   -5.301846|   -5.102588|   -4.918974|   -7.375494|    2.278654|
|           7|  7.3263e+00|  1.0108e-09|  1.3663e-01|  9.7436e-02|  9.7436e-02|  9.7436e-02|   -4.647604|   -4.722292|   -5.301982|   -5.102668|   -4.919122|   -7.375523|    2.278711|
|           8|  7.2511e+00|  1.1119e-09|  1.5029e-01|  1.0718e-01|  1.0718e-01|  1.0718e-01|   -4.647714|   -4.722395|   -5.302127|   -5.102754|   -4.919282|   -7.375556|    2.278773|
|           9|  7.1917e+00|  1.2231e-09|  1.6532e-01|  1.1790e-01|  1.1790e-01|  1.1790e-01|   -4.647832|   -4.722506|   -5.302280|   -5.102844|   -4.919453|   -7.375593|    2.278841|
|          10|  7.1484e+00|  1.3454e-09|  1.8185e-01|  1.2969e-01|  1.2969e-01|  1.2969e-01|   -4.647958|   -4.722628|   -5.302440|   -5.102939|   -4.919636|   -7.375634|    2.278916|
|          11|  7.1052e+00|  1.4800e-09|  2.0004e-01|  1.4266e-01|  1.4266e-01|  1.4266e-01|   -4.648094|   -4.722760|   -5.302608|   -5.103039|   -4.919831|   -7.375679|    2.278999|
|          12|  7.1376e+00|  1.6280e-09|  2.2004e-01|  1.5692e-01|  1.5692e-01|  1.5692e-01|   -4.648238|   -4.722904|   -5.302782|   -5.103142|   -4.920039|   -7.375730|    2.279090|
|          13|  7.1686e+00|  1.7908e-09|  2.4205e-01|  1.7261e-01|  1.7261e-01|  1.7261e-01|   -4.648392|   -4.723060|   -5.302962|   -5.103249|   -4.920260|   -7.375786|    2.279189|
|          14|  7.1850e+00|  1.9698e-09|  2.6625e-01|  1.8987e-01|  1.8987e-01|  1.8987e-01|   -4.648556|   -4.723229|   -5.303146|   -5.103359|   -4.920494|   -7.375849|    2.279299|
|          15|  7.2026e+00|  2.1668e-09|  2.9288e-01|  2.0886e-01|  2.0886e-01|  2.0886e-01|   -4.648729|   -4.723411|   -5.303333|   -5.103470|   -4.920740|   -7.375919|    2.279420|
|          16|  7.2218e+00|  2.3835e-09|  3.2216e-01|  2.2975e-01|  2.2975e-01|  2.2975e-01|   -4.648911|   -4.723607|   -5.303520|   -5.103581|   -4.920998|   -7.375998|    2.279553|
|          17|  7.2555e+00|  2.6218e-09|  3.5438e-01|  2.5272e-01|  2.5272e-01|  2.5272e-01|   -4.649101|   -4.723818|   -5.303706|   -5.103690|   -4.921266|   -7.376086|    2.279699|
|          18|  7.2879e+00|  2.8840e-09|  3.8982e-01|  2.7800e-01|  2.7800e-01|  2.7800e-01|   -4.649299|   -4.724042|   -5.303885|   -5.103794|   -4.921542|   -7.376185|    2.279859|
|          19|  7.3367e+00|  3.1724e-09|  4.2880e-01|  3.0580e-01|  3.0580e-01|  3.0580e-01|   -4.649503|   -4.724281|   -5.304056|   -5.103890|   -4.921824|   -7.376296|    2.280035|
|          20|  7.3694e+00|  3.4897e-09|  4.7168e-01|  3.3637e-01|  3.3637e-01|  3.3637e-01|   -4.649711|   -4.724532|   -5.304212|   -5.103975|   -4.922109|   -7.376422|    2.280229|
|          21|  7.3895e+00|  3.8386e-09|  5.1885e-01|  3.7001e-01|  3.7001e-01|  3.7001e-01|   -4.649919|   -4.724796|   -5.304349|   -5.104044|   -4.922391|   -7.376563|    2.280442|
|          22|  7.4423e+00|  4.2225e-09|  5.7073e-01|  4.0701e-01|  4.0701e-01|  4.0701e-01|   -4.650125|   -4.725069|   -5.304459|   -5.104091|   -4.922665|   -7.376723|    2.280676|
|          23|  7.4931e+00|  4.6448e-09|  6.2781e-01|  4.4772e-01|  4.4772e-01|  4.4772e-01|   -4.650324|   -4.725348|   -5.304536|   -5.104109|   -4.922923|   -7.376903|    2.280934|
|          24|  7.5295e+00|  5.1093e-09|  6.9059e-01|  4.9249e-01|  4.9249e-01|  4.9249e-01|   -4.650508|   -4.725628|   -5.304570|   -5.104089|   -4.923155|   -7.377108|    2.281217|
|          25|  7.5684e+00|  5.6202e-09|  7.5965e-01|  5.0000e-01|  5.0000e-01|  5.0000e-01|   -4.650668|   -4.725901|   -5.304552|   -5.104020|   -4.923347|   -7.377341|    2.281527|
|          26|  7.6122e+00|  5.7059e-09|  7.7124e-01|  5.0000e-01|  5.0000e-01|  5.0000e-01|   -4.650795|   -4.726160|   -5.304469|   -5.103891|   -4.923483|   -7.377748|    2.281842|
|          27|  7.6483e+00|  5.7059e-09|  7.7124e-01|  5.0000e-01|  5.0000e-01|  5.0000e-01|   -4.650908|   -4.726404|   -5.304385|   -5.103748|   -4.923599|   -7.378193|    2.282156|
|          28|  7.6801e+00|  5.7059e-09|  7.7124e-01|  5.0000e-01|  5.0000e-01|  5.0000e-01|   -4.651012|   -4.726636|   -5.304313|   -5.103605|   -4.923705|   -7.378644|    2.282470|
|          29|  7.7074e+00|  5.7060e-09|  7.7124e-01|  5.0000e-01|  5.0000e-01|  5.0000e-01|   -4.651110|   -4.726856|   -5.304254|   -5.103460|   -4.923802|   -7.379101|    2.282783|
|          30|  7.7275e+00|  5.7060e-09|  7.7124e-01|  5.0000e-01|  5.0000e-01|  5.0000e-01|   -4.651199|   -4.727065|   -5.304207|   -5.103314|   -4.923889|   -7.379562|    2.283095|
|          31|  7.7492e+00|  5.7060e-09|  7.7124e-01|  5.0000e-01|  5.0000e-01|  5.0000e-01|   -4.651282|   -4.727263|   -5.304174|   -5.103165|   -4.923968|   -7.380030|    2.283407|
|          32|  7.7716e+00|  5.7060e-09|  7.7124e-01|  5.0000e-01|  5.0000e-01|  5.0000e-01|   -4.651357|   -4.727451|   -5.304150|   -5.103015|   -4.924039|   -7.380502|    2.283718|
|          33|  7.8005e+00|  5.7060e-09|  7.7124e-01|  5.0000e-01|  5.0000e-01|  5.0000e-01|   -4.651426|   -4.727630|   -5.304136|   -5.102864|   -4.924103|   -7.380980|    2.284028|
|          34|  7.8310e+00|  5.7060e-09|  7.7124e-01|  5.0000e-01|  5.0000e-01|  5.0000e-01|   -4.651490|   -4.727802|   -5.304131|   -5.102713|   -4.924161|   -7.381462|    2.284338|
|          35|  7.8530e+00|  5.7060e-09|  7.7124e-01|  5.0000e-01|  5.0000e-01|  5.0000e-01|   -4.651548|   -4.727965|   -5.304135|   -5.102561|   -4.924212|   -7.381949|    2.284647|
|          36|  7.8693e+00|  5.7060e-09|  7.7124e-01|  5.0000e-01|  5.0000e-01|  5.0000e-01|   -4.651599|   -4.728121|   -5.304147|   -5.102409|   -4.924258|   -7.382442|    2.284955|
|          37|  7.8849e+00|  5.7060e-09|  7.7124e-01|  5.0000e-01|  5.0000e-01|  5.0000e-01|   -4.651646|   -4.728271|   -5.304167|   -5.102257|   -4.924300|   -7.382939|    2.285262|
|          38|  7.8956e+00|  5.7060e-09|  7.7124e-01|  5.0000e-01|  5.0000e-01|  5.0000e-01|   -4.651689|   -4.728417|   -5.304194|   -5.102106|   -4.924339|   -7.383442|    2.285569|
|          39|  7.9089e+00|  5.7060e-09|  7.7124e-01|  5.0000e-01|  5.0000e-01|  5.0000e-01|   -4.651730|   -4.728559|   -5.304227|   -5.101958|   -4.924377|   -7.383949|    2.285876|
|          40|  7.9216e+00|  5.7060e-09|  7.7124e-01|  5.0000e-01|  5.0000e-01|  5.0000e-01|   -4.651769|   -4.728698|   -5.304267|   -5.101811|   -4.924412|   -7.384461|    2.286181|
|          41|  7.9318e+00|  5.7060e-09|  7.7124e-01|  5.0000e-01|  5.0000e-01|  5.0000e-01|   -4.651804|   -4.728834|   -5.304312|   -5.101666|   -4.924447|   -7.384978|    2.286486|
|          42|  7.9419e+00|  5.7061e-09|  7.7124e-01|  5.0000e-01|  5.0000e-01|  5.0000e-01|   -4.651838|   -4.728968|   -5.304364|   -5.101522|   -4.924481|   -7.385500|    2.286791|
|          43|  7.9538e+00|  5.7061e-09|  7.7124e-01|  5.0000e-01|  5.0000e-01|  5.0000e-01|   -4.651870|   -4.729099|   -5.304421|   -5.101381|   -4.924515|   -7.386027|    2.287094|
|          44|  7.9644e+00|  5.7061e-09|  7.7124e-01|  5.0000e-01|  5.0000e-01|  5.0000e-01|   -4.651901|   -4.729230|   -5.304482|   -5.101240|   -4.924549|   -7.386558|    2.287397|
|          45|  7.9721e+00|  5.7061e-09|  7.7124e-01|  5.0000e-01|  5.0000e-01|  5.0000e-01|   -4.651931|   -4.729360|   -5.304548|   -5.101102|   -4.924584|   -7.387093|    2.287700|
|          46|  7.9832e+00|  5.7061e-09|  7.7124e-01|  5.0000e-01|  5.0000e-01|  5.0000e-01|   -4.651962|   -4.729491|   -5.304619|   -5.100968|   -4.924623|   -7.387634|    2.288001|
|          47|  7.9986e+00|  5.7061e-09|  7.7124e-01|  5.0000e-01|  5.0000e-01|  5.0000e-01|   -4.651994|   -4.729622|   -5.304695|   -5.100835|   -4.924664|   -7.388178|    2.288303|
|          48|  8.0084e+00|  5.7061e-09|  7.7124e-01|  5.0000e-01|  5.0000e-01|  5.0000e-01|   -4.652026|   -4.729754|   -5.304774|   -5.100705|   -4.924707|   -7.388727|    2.288603|
|          49|  8.0186e+00|  5.7061e-09|  7.7124e-01|  5.0000e-01|  5.0000e-01|  5.0000e-01|   -4.652059|   -4.729887|   -5.304857|   -5.100577|   -4.924754|   -7.389281|    2.288903|
|          50|  8.0210e+00|  5.7061e-09|  7.7124e-01|  5.0000e-01|  5.0000e-01|  5.0000e-01|   -4.652095|   -4.730022|   -5.304943|   -5.100452|   -4.924805|   -7.389839|    2.289203|
|          51|  8.0309e+00|  5.7061e-09|  7.7124e-01|  5.0000e-01|  5.0000e-01|  5.0000e-01|   -4.652133|   -4.730160|   -5.305032|   -5.100330|   -4.924860|   -7.390402|    2.289501|
|          52|  8.0370e+00|  5.7061e-09|  7.7124e-01|  5.0000e-01|  5.0000e-01|  5.0000e-01|   -4.652172|   -4.730299|   -5.305123|   -5.100211|   -4.924919|   -7.390968|    2.289800|
|          53|  8.0405e+00|  5.7062e-09|  7.7124e-01|  5.0000e-01|  5.0000e-01|  5.0000e-01|   -4.652214|   -4.730440|   -5.305215|   -5.100094|   -4.924982|   -7.391539|    2.290097|
|          54|  8.0449e+00|  5.7062e-09|  7.7124e-01|  5.0000e-01|  5.0000e-01|  5.0000e-01|   -4.652257|   -4.730584|   -5.305310|   -5.099979|   -4.925048|   -7.392115|    2.290395|
|          55|  8.0530e+00|  5.7062e-09|  7.7124e-01|  5.0000e-01|  5.0000e-01|  5.0000e-01|   -4.652303|   -4.730731|   -5.305405|   -5.099866|   -4.925119|   -7.392694|    2.290691|
|          56|  8.0596e+00|  5.7062e-09|  7.7124e-01|  5.0000e-01|  5.0000e-01|  5.0000e-01|   -4.652351|   -4.730879|   -5.305500|   -5.099755|   -4.925193|   -7.393278|    2.290987|
|          57|  8.0649e+00|  5.7062e-09|  7.7124e-01|  5.0000e-01|  5.0000e-01|  5.0000e-01|   -4.652400|   -4.731031|   -5.305595|   -5.099646|   -4.925271|   -7.393865|    2.291283|
|          58|  8.0683e+00|  5.7062e-09|  7.7124e-01|  5.0000e-01|  5.0000e-01|  5.0000e-01|   -4.652452|   -4.731185|   -5.305691|   -5.099540|   -4.925354|   -7.394457|    2.291578|
|          59|  8.0762e+00|  5.7062e-09|  7.7124e-01|  5.0000e-01|  5.0000e-01|  5.0000e-01|   -4.652507|   -4.731342|   -5.305788|   -5.099436|   -4.925441|   -7.395053|    2.291872|
|          60|  8.0822e+00|  5.7062e-09|  7.7124e-01|  5.0000e-01|  5.0000e-01|  5.0000e-01|   -4.652564|   -4.731502|   -5.305886|   -5.099335|   -4.925531|   -7.395655|    2.292166|
|          61|  8.0899e+00|  5.7062e-09|  7.7124e-01|  5.0000e-01|  5.0000e-01|  5.0000e-01|   -4.652622|   -4.731663|   -5.305983|   -5.099236|   -4.925625|   -7.396260|    2.292459|
|          62|  8.0995e+00|  5.7062e-09|  7.7124e-01|  5.0000e-01|  5.0000e-01|  5.0000e-01|   -4.652683|   -4.731828|   -5.306079|   -5.099138|   -4.925723|   -7.396870|    2.292752|
|          63|  8.1027e+00|  5.7062e-09|  7.7124e-01|  5.0000e-01|  5.0000e-01|  5.0000e-01|   -4.652746|   -4.731994|   -5.306178|   -5.099042|   -4.925824|   -7.397482|    2.293045|
|          64|  8.1046e+00|  5.7063e-09|  7.7124e-01|  5.0000e-01|  5.0000e-01|  5.0000e-01|   -4.652811|   -4.732163|   -5.306277|   -5.098948|   -4.925928|   -7.398099|    2.293337|
|          65|  8.1082e+00|  5.7063e-09|  7.7124e-01|  5.0000e-01|  5.0000e-01|  5.0000e-01|   -4.652877|   -4.732334|   -5.306376|   -5.098855|   -4.926036|   -7.398719|    2.293628|
|          66|  8.1106e+00|  5.7063e-09|  7.7124e-01|  5.0000e-01|  5.0000e-01|  5.0000e-01|   -4.652946|   -4.732507|   -5.306477|   -5.098763|   -4.926147|   -7.399343|    2.293919|
|          67|  8.1162e+00|  5.7063e-09|  7.7124e-01|  5.0000e-01|  5.0000e-01|  5.0000e-01|   -4.653016|   -4.732681|   -5.306579|   -5.098672|   -4.926260|   -7.399970|    2.294209|
|          68|  8.1189e+00|  5.7063e-09|  7.7124e-01|  5.0000e-01|  5.0000e-01|  5.0000e-01|   -4.653088|   -4.732857|   -5.306681|   -5.098583|   -4.926377|   -7.400601|    2.294499|
|          69|  8.1231e+00|  5.7063e-09|  7.7124e-01|  5.0000e-01|  5.0000e-01|  5.0000e-01|   -4.653162|   -4.733034|   -5.306782|   -5.098495|   -4.926496|   -7.401236|    2.294788|
|          70|  8.1247e+00|  5.7063e-09|  7.7124e-01|  5.0000e-01|  5.0000e-01|  5.0000e-01|   -4.653237|   -4.733213|   -5.306884|   -5.098407|   -4.926617|   -7.401874|    2.295077|
|          71|  8.1257e+00|  5.7063e-09|  7.7124e-01|  5.0000e-01|  5.0000e-01|  5.0000e-01|   -4.653313|   -4.733394|   -5.306987|   -5.098320|   -4.926741|   -7.402515|    2.295366|
|          72|  8.1293e+00|  5.7063e-09|  7.7124e-01|  5.0000e-01|  5.0000e-01|  5.0000e-01|   -4.653390|   -4.733575|   -5.307089|   -5.098233|   -4.926866|   -7.403160|    2.295654|
|          73|  8.1316e+00|  5.7063e-09|  7.7124e-01|  5.0000e-01|  5.0000e-01|  5.0000e-01|   -4.653468|   -4.733757|   -5.307192|   -5.098147|   -4.926994|   -7.403808|    2.295941|
|          74|  8.1359e+00|  5.7064e-09|  7.7124e-01|  5.0000e-01|  5.0000e-01|  5.0000e-01|   -4.653546|   -4.733940|   -5.307295|   -5.098062|   -4.927122|   -7.404459|    2.296228|
|          75|  8.1403e+00|  5.7064e-09|  7.7124e-01|  5.0000e-01|  5.0000e-01|  5.0000e-01|   -4.653626|   -4.734125|   -5.307397|   -5.097979|   -4.927254|   -7.405114|    2.296515|
|          76|  8.1439e+00|  5.7064e-09|  7.7124e-01|  5.0000e-01|  5.0000e-01|  5.0000e-01|   -4.653707|   -4.734311|   -5.307499|   -5.097896|   -4.927387|   -7.405772|    2.296801|
|          77|  8.1472e+00|  5.7064e-09|  7.7124e-01|  5.0000e-01|  5.0000e-01|  5.0000e-01|   -4.653787|   -4.734497|   -5.307599|   -5.097814|   -4.927520|   -7.406434|    2.297087|
|          78|  8.1503e+00|  5.7064e-09|  7.7124e-01|  5.0000e-01|  5.0000e-01|  5.0000e-01|   -4.653867|   -4.734683|   -5.307699|   -5.097731|   -4.927654|   -7.407098|    2.297372|
|          79|  8.1528e+00|  5.7064e-09|  7.7124e-01|  5.0000e-01|  5.0000e-01|  5.0000e-01|   -4.653947|   -4.734869|   -5.307800|   -5.097649|   -4.927789|   -7.407766|    2.297657|
|          80|  8.1588e+00|  5.7064e-09|  7.7124e-01|  5.0000e-01|  5.0000e-01|  5.0000e-01|   -4.654026|   -4.735054|   -5.307898|   -5.097568|   -4.927924|   -7.408438|    2.297941|
|          81|  8.1627e+00|  5.7064e-09|  7.7124e-01|  5.0000e-01|  5.0000e-01|  5.0000e-01|   -4.654104|   -4.735239|   -5.307996|   -5.097486|   -4.928057|   -7.409112|    2.298225|
|          82|  8.1659e+00|  5.7064e-09|  7.7124e-01|  5.0000e-01|  5.0000e-01|  5.0000e-01|   -4.654181|   -4.735423|   -5.308093|   -5.097404|   -4.928192|   -7.409786|    2.298509|
|          83|  8.1706e+00|  5.7065e-09|  7.7124e-01|  5.0000e-01|  5.0000e-01|  5.0000e-01|   -4.654258|   -4.735606|   -5.308191|   -5.097322|   -4.928326|   -7.410459|    2.298792|
|          84|  8.1737e+00|  5.7065e-09|  7.7124e-01|  5.0000e-01|  5.0000e-01|  5.0000e-01|   -4.654335|   -4.735788|   -5.308288|   -5.097241|   -4.928461|   -7.411135|    2.299074|
|          85|  8.1750e+00|  5.7065e-09|  7.7124e-01|  5.0000e-01|  5.0000e-01|  5.0000e-01|   -4.654411|   -4.735970|   -5.308385|   -5.097158|   -4.928596|   -7.411815|    2.299356|
|          86|  8.1754e+00|  5.7065e-09|  7.7124e-01|  5.0000e-01|  5.0000e-01|  5.0000e-01|   -4.654489|   -4.736152|   -5.308483|   -5.097077|   -4.928733|   -7.412498|    2.299638|
|          87|  8.1747e+00|  5.7065e-09|  7.7124e-01|  5.0000e-01|  5.0000e-01|  5.0000e-01|   -4.654566|   -4.736334|   -5.308580|   -5.096996|   -4.928870|   -7.413185|    2.299919|
|          88|  8.1742e+00|  5.7065e-09|  7.7124e-01|  5.0000e-01|  5.0000e-01|  5.0000e-01|   -4.654642|   -4.736514|   -5.308676|   -5.096914|   -4.929006|   -7.413875|    2.300200|
|          89|  8.1736e+00|  5.7065e-09|  7.7124e-01|  5.0000e-01|  5.0000e-01|  5.0000e-01|   -4.654716|   -4.736691|   -5.308771|   -5.096830|   -4.929141|   -7.414568|    2.300480|
|          90|  8.1778e+00|  5.7065e-09|  7.7124e-01|  5.0000e-01|  5.0000e-01|  5.0000e-01|   -4.654787|   -4.736866|   -5.308865|   -5.096744|   -4.929273|   -7.415265|    2.300760|
|          91|  8.1779e+00|  5.7065e-09|  7.7124e-01|  5.0000e-01|  5.0000e-01|  5.0000e-01|   -4.654857|   -4.737037|   -5.308959|   -5.096658|   -4.929404|   -7.415964|    2.301039|
|          92|  8.1808e+00|  5.7066e-09|  7.7124e-01|  5.0000e-01|  5.0000e-01|  5.0000e-01|   -4.654925|   -4.737207|   -5.309053|   -5.096570|   -4.929534|   -7.416667|    2.301318|
|          93|  8.1801e+00|  5.7066e-09|  7.7124e-01|  5.0000e-01|  5.0000e-01|  5.0000e-01|   -4.654990|   -4.737373|   -5.309145|   -5.096482|   -4.929661|   -7.417373|    2.301597|
|          94|  8.1800e+00|  5.7066e-09|  7.7124e-01|  5.0000e-01|  5.0000e-01|  5.0000e-01|   -4.655054|   -4.737538|   -5.309237|   -5.096393|   -4.929787|   -7.418081|    2.301875|
|          95|  8.1792e+00|  5.7066e-09|  7.7124e-01|  5.0000e-01|  5.0000e-01|  5.0000e-01|   -4.655116|   -4.737701|   -5.309330|   -5.096305|   -4.929912|   -7.418793|    2.302152|
|          96|  8.1798e+00|  5.7066e-09|  7.7124e-01|  5.0000e-01|  5.0000e-01|  5.0000e-01|   -4.655183|   -4.737871|   -5.309428|   -5.096227|   -4.930045|   -7.419507|    2.302430|
|          97|  8.1817e+00|  5.7066e-09|  7.7124e-01|  5.0000e-01|  5.0000e-01|  5.0000e-01|   -4.655248|   -4.738037|   -5.309525|   -5.096147|   -4.930175|   -7.420224|    2.302706|
|          98|  8.1827e+00|  5.7066e-09|  7.7124e-01|  5.0000e-01|  5.0000e-01|  5.0000e-01|   -4.655312|   -4.738200|   -5.309623|   -5.096067|   -4.930305|   -7.420944|    2.302982|
|          99|  8.1840e+00|  5.7066e-09|  7.7124e-01|  5.0000e-01|  5.0000e-01|  5.0000e-01|   -4.655372|   -4.738359|   -5.309721|   -5.095985|   -4.930431|   -7.421667|    2.303258|
|         100|  8.1835e+00|  5.7067e-09|  7.7124e-01|  5.0000e-01|  5.0000e-01|  5.0000e-01|   -4.655429|   -4.738515|   -5.309816|   -5.095900|   -4.930554|   -7.422393|    2.303533|
|         101|  8.1860e+00|  5.7067e-09|  7.7124e-01|  5.0000e-01|  5.0000e-01|  5.0000e-01|   -4.655484|   -4.738666|   -5.309910|   -5.095813|   -4.930674|   -7.423121|    2.303808|
|         102|  8.1882e+00|  5.7067e-09|  7.7124e-01|  5.0000e-01|  5.0000e-01|  5.0000e-01|   -4.655535|   -4.738814|   -5.310002|   -5.095723|   -4.930791|   -7.423851|    2.304082|
|         103|  8.1891e+00|  5.7067e-09|  7.7124e-01|  5.0000e-01|  5.0000e-01|  5.0000e-01|   -4.655583|   -4.738957|   -5.310091|   -5.095632|   -4.930904|   -7.424584|    2.304356|
|         104|  8.1906e+00|  5.7067e-09|  7.7124e-01|  5.0000e-01|  5.0000e-01|  5.0000e-01|   -4.655627|   -4.739097|   -5.310179|   -5.095537|   -4.931013|   -7.425320|    2.304629|
|         105|  8.1957e+00|  5.7067e-09|  7.7124e-01|  5.0000e-01|  5.0000e-01|  5.0000e-01|   -4.655668|   -4.739231|   -5.310266|   -5.095441|   -4.931118|   -7.426058|    2.304902|
|         106|  8.1985e+00|  5.7067e-09|  7.7124e-01|  5.0000e-01|  5.0000e-01|  5.0000e-01|   -4.655704|   -4.739361|   -5.310350|   -5.095341|   -4.931219|   -7.426799|    2.305174|
|         107|  8.2012e+00|  5.7067e-09|  7.7124e-01|  5.0000e-01|  5.0000e-01|  5.0000e-01|   -4.655736|   -4.739486|   -5.310432|   -5.095238|   -4.931316|   -7.427542|    2.305445|
|         108|  8.2039e+00|  5.7068e-09|  7.7124e-01|  5.0000e-01|  5.0000e-01|  5.0000e-01|   -4.655764|   -4.739607|   -5.310511|   -5.095133|   -4.931409|   -7.428287|    2.305717|
|         109|  8.2055e+00|  5.7068e-09|  7.7124e-01|  5.0000e-01|  5.0000e-01|  5.0000e-01|   -4.655788|   -4.739724|   -5.310589|   -5.095026|   -4.931497|   -7.429035|    2.305987|
|         110|  8.2062e+00|  5.7068e-09|  7.7124e-01|  5.0000e-01|  5.0000e-01|  5.0000e-01|   -4.655808|   -4.739836|   -5.310664|   -5.094917|   -4.931582|   -7.429785|    2.306257|
|         111|  8.2076e+00|  5.7068e-09|  7.7124e-01|  5.0000e-01|  5.0000e-01|  5.0000e-01|   -4.655824|   -4.739944|   -5.310737|   -5.094805|   -4.931662|   -7.430537|    2.306527|
|         112|  8.2083e+00|  5.7068e-09|  7.7124e-01|  5.0000e-01|  5.0000e-01|  5.0000e-01|   -4.655836|   -4.740048|   -5.310808|   -5.094692|   -4.931739|   -7.431291|    2.306796|
|         113|  8.2091e+00|  5.7068e-09|  7.7124e-01|  5.0000e-01|  5.0000e-01|  5.0000e-01|   -4.655845|   -4.740147|   -5.310878|   -5.094576|   -4.931812|   -7.432047|    2.307065|
|         114|  8.2099e+00|  5.7068e-09|  7.7124e-01|  5.0000e-01|  5.0000e-01|  5.0000e-01|   -4.655849|   -4.740241|   -5.310946|   -5.094458|   -4.931880|   -7.432805|    2.307333|
|         115|  8.2106e+00|  5.7068e-09|  7.7124e-01|  5.0000e-01|  5.0000e-01|  5.0000e-01|   -4.655849|   -4.740331|   -5.311012|   -5.094339|   -4.931944|   -7.433565|    2.307601|
|         116|  8.2124e+00|  5.7069e-09|  7.7124e-01|  5.0000e-01|  5.0000e-01|  5.0000e-01|   -4.655844|   -4.740416|   -5.311076|   -5.094218|   -4.932004|   -7.434327|    2.307868|
|         117|  8.2133e+00|  5.7069e-09|  7.7124e-01|  5.0000e-01|  5.0000e-01|  5.0000e-01|   -4.655837|   -4.740497|   -5.311139|   -5.094096|   -4.932061|   -7.435091|    2.308134|
|         118|  8.2141e+00|  5.7069e-09|  7.7124e-01|  5.0000e-01|  5.0000e-01|  5.0000e-01|   -4.655826|   -4.740574|   -5.311202|   -5.093974|   -4.932115|   -7.435857|    2.308400|
|         119|  8.2171e+00|  5.7069e-09|  7.7124e-01|  5.0000e-01|  5.0000e-01|  5.0000e-01|   -4.655811|   -4.740646|   -5.311263|   -5.093850|   -4.932165|   -7.436625|    2.308666|
|         120|  8.2179e+00|  5.7069e-09|  7.7124e-01|  5.0000e-01|  5.0000e-01|  5.0000e-01|   -4.655792|   -4.740713|   -5.311321|   -5.093724|   -4.932210|   -7.437394|    2.308930|
|         121|  8.2198e+00|  5.7069e-09|  7.7124e-01|  5.0000e-01|  5.0000e-01|  5.0000e-01|   -4.655769|   -4.740775|   -5.311378|   -5.093597|   -4.932252|   -7.438166|    2.309195|
|         122|  8.2220e+00|  5.7069e-09|  7.7124e-01|  5.0000e-01|  5.0000e-01|  5.0000e-01|   -4.655745|   -4.740837|   -5.311436|   -5.093473|   -4.932294|   -7.438939|    2.309459|
|         123|  8.2233e+00|  5.7069e-09|  7.7124e-01|  5.0000e-01|  5.0000e-01|  5.0000e-01|   -4.655718|   -4.740895|   -5.311491|   -5.093350|   -4.932333|   -7.439714|    2.309722|
|         124|  8.2252e+00|  5.7070e-09|  7.7124e-01|  5.0000e-01|  5.0000e-01|  5.0000e-01|   -4.655688|   -4.740949|   -5.311546|   -5.093227|   -4.932369|   -7.440490|    2.309985|
|         125|  8.2258e+00|  5.7070e-09|  7.7124e-01|  5.0000e-01|  5.0000e-01|  5.0000e-01|   -4.655656|   -4.741001|   -5.311600|   -5.093104|   -4.932404|   -7.441268|    2.310247|
|         126|  8.2272e+00|  5.7070e-09|  7.7124e-01|  5.0000e-01|  5.0000e-01|  5.0000e-01|   -4.655622|   -4.741049|   -5.311653|   -5.092980|   -4.932436|   -7.442047|    2.310508|
|         127|  8.2273e+00|  5.7070e-09|  7.7124e-01|  5.0000e-01|  5.0000e-01|  5.0000e-01|   -4.655585|   -4.741094|   -5.311705|   -5.092855|   -4.932466|   -7.442827|    2.310770|
|         128|  8.2288e+00|  5.7070e-09|  7.7124e-01|  5.0000e-01|  5.0000e-01|  5.0000e-01|   -4.655543|   -4.741134|   -5.311756|   -5.092728|   -4.932491|   -7.443609|    2.311030|
|         129|  8.2304e+00|  5.7070e-09|  7.7124e-01|  5.0000e-01|  5.0000e-01|  5.0000e-01|   -4.655498|   -4.741169|   -5.311807|   -5.092600|   -4.932512|   -7.444392|    2.311290|
|         130|  8.2326e+00|  5.7070e-09|  7.7124e-01|  5.0000e-01|  5.0000e-01|  5.0000e-01|   -4.655450|   -4.741200|   -5.311857|   -5.092471|   -4.932531|   -7.445177|    2.311549|
|         131|  8.2355e+00|  5.7071e-09|  7.7124e-01|  5.0000e-01|  5.0000e-01|  5.0000e-01|   -4.655399|   -4.741226|   -5.311907|   -5.092341|   -4.932546|   -7.445962|    2.311808|
|         132|  8.2375e+00|  5.7071e-09|  7.7124e-01|  5.0000e-01|  5.0000e-01|  5.0000e-01|   -4.655345|   -4.741248|   -5.311955|   -5.092209|   -4.932558|   -7.446749|    2.312066|
|         133|  8.2386e+00|  5.7071e-09|  7.7124e-01|  5.0000e-01|  5.0000e-01|  5.0000e-01|   -4.655289|   -4.741267|   -5.312002|   -5.092077|   -4.932568|   -7.447536|    2.312324|
|         134|  8.2397e+00|  5.7071e-09|  7.7124e-01|  5.0000e-01|  5.0000e-01|  5.0000e-01|   -4.655230|   -4.741281|   -5.312048|   -5.091943|   -4.932574|   -7.448325|    2.312581|
|         135|  8.2410e+00|  5.7071e-09|  7.7124e-01|  5.0000e-01|  5.0000e-01|  5.0000e-01|   -4.655168|   -4.741292|   -5.312095|   -5.091808|   -4.932578|   -7.449114|    2.312837|
|         136|  8.2427e+00|  5.7071e-09|  7.7124e-01|  5.0000e-01|  5.0000e-01|  5.0000e-01|   -4.655103|   -4.741298|   -5.312140|   -5.091673|   -4.932578|   -7.449905|    2.313093|
|         137|  8.2445e+00|  5.7071e-09|  7.7124e-01|  5.0000e-01|  5.0000e-01|  5.0000e-01|   -4.655035|   -4.741300|   -5.312185|   -5.091535|   -4.932574|   -7.450697|    2.313348|
|         138|  8.2453e+00|  5.7072e-09|  7.7124e-01|  5.0000e-01|  5.0000e-01|  5.0000e-01|   -4.654964|   -4.741298|   -5.312229|   -5.091397|   -4.932568|   -7.451489|    2.313602|
|         139|  8.2467e+00|  5.7072e-09|  7.7124e-01|  5.0000e-01|  5.0000e-01|  5.0000e-01|   -4.654891|   -4.741293|   -5.312271|   -5.091258|   -4.932560|   -7.452282|    2.313856|
|         140|  8.2485e+00|  5.7072e-09|  7.7124e-01|  5.0000e-01|  5.0000e-01|  5.0000e-01|   -4.654816|   -4.741283|   -5.312312|   -5.091118|   -4.932548|   -7.453076|    2.314109|
|         141|  8.2493e+00|  5.7072e-09|  7.7124e-01|  5.0000e-01|  5.0000e-01|  5.0000e-01|   -4.654737|   -4.741271|   -5.312352|   -5.090978|   -4.932533|   -7.453871|    2.314362|
|         142|  8.2513e+00|  5.7072e-09|  7.7124e-01|  5.0000e-01|  5.0000e-01|  5.0000e-01|   -4.654656|   -4.741255|   -5.312392|   -5.090838|   -4.932516|   -7.454666|    2.314614|
|         143|  8.2519e+00|  5.7072e-09|  7.7124e-01|  5.0000e-01|  5.0000e-01|  5.0000e-01|   -4.654573|   -4.741236|   -5.312430|   -5.090697|   -4.932495|   -7.455462|    2.314865|
|         144|  8.2525e+00|  5.7072e-09|  7.7124e-01|  5.0000e-01|  5.0000e-01|  5.0000e-01|   -4.654487|   -4.741214|   -5.312468|   -5.090555|   -4.932473|   -7.456259|    2.315116|
|         145|  8.2538e+00|  5.7073e-09|  7.7124e-01|  5.0000e-01|  5.0000e-01|  5.0000e-01|   -4.654400|   -4.741189|   -5.312508|   -5.090413|   -4.932450|   -7.457057|    2.315365|
|         146|  8.2548e+00|  5.7073e-09|  7.7124e-01|  5.0000e-01|  5.0000e-01|  5.0000e-01|   -4.654313|   -4.741165|   -5.312548|   -5.090274|   -4.932427|   -7.457855|    2.315615|
|         147|  8.2598e+00|  5.7073e-09|  7.7124e-01|  5.0000e-01|  5.0000e-01|  5.0000e-01|   -4.654221|   -4.741138|   -5.312586|   -5.090134|   -4.932399|   -7.458654|    2.315863|
|         148|  8.2641e+00|  5.7073e-09|  7.7124e-01|  5.0000e-01|  5.0000e-01|  5.0000e-01|   -4.654127|   -4.741106|   -5.312623|   -5.089992|   -4.932369|   -7.459453|    2.316111|
|         149|  8.2669e+00|  5.7073e-09|  7.7124e-01|  5.0000e-01|  5.0000e-01|  5.0000e-01|   -4.654033|   -4.741075|   -5.312661|   -5.089852|   -4.932339|   -7.460253|    2.316358|
|         150|  8.2687e+00|  5.7073e-09|  7.7124e-01|  5.0000e-01|  5.0000e-01|  5.0000e-01|   -4.653938|   -4.741043|   -5.312699|   -5.089715|   -4.932310|   -7.461053|    2.316604|
+-----------------------------------------------------------------------+
|        File Writing Summary       |              Filename             |
+-----------------------------------------------------------------------+
|SU2 binary restart                 |restart_flow.dat                   |
|Paraview                           |flow.vtu                           |
|Paraview surface                   |surface_flow.vtu                   |
+-----------------------------------------------------------------------+
+-------------------------------------------------------------------------------------------------------------------------------------------------------------------------------------+
|  Inner_Iter|   Time(sec)|      Min DT|      Max DT|     Min CFL|     Max CFL|     Avg CFL|    rms[Rho]|   rms[RhoU]|   rms[RhoV]|   rms[RhoW]|   rms[RhoE]|     rms[nu]|          CD|
+-------------------------------------------------------------------------------------------------------------------------------------------------------------------------------------+
|         151|  8.4106e+00|  5.7073e-09|  7.7124e-01|  5.0000e-01|  5.0000e-01|  5.0000e-01|   -4.653842|   -4.741008|   -5.312736|   -5.089579|   -4.932278|   -7.461854|    2.316850|
|         152|  8.4091e+00|  5.7074e-09|  7.7124e-01|  5.0000e-01|  5.0000e-01|  5.0000e-01|   -4.653743|   -4.740971|   -5.312771|   -5.089442|   -4.932244|   -7.462655|    2.317094|
|         153|  8.4087e+00|  5.7074e-09|  7.7124e-01|  5.0000e-01|  5.0000e-01|  5.0000e-01|   -4.653641|   -4.740929|   -5.312804|   -5.089304|   -4.932207|   -7.463456|    2.317339|
|         154|  8.4078e+00|  5.7074e-09|  7.7124e-01|  5.0000e-01|  5.0000e-01|  5.0000e-01|   -4.653536|   -4.740883|   -5.312836|   -5.089166|   -4.932165|   -7.464257|    2.317582|
|         155|  8.4066e+00|  5.7074e-09|  7.7124e-01|  5.0000e-01|  5.0000e-01|  5.0000e-01|   -4.653427|   -4.740834|   -5.312866|   -5.089026|   -4.932120|   -7.465059|    2.317825|
|         156|  8.4050e+00|  5.7074e-09|  7.7124e-01|  5.0000e-01|  5.0000e-01|  5.0000e-01|   -4.653317|   -4.740781|   -5.312895|   -5.088887|   -4.932074|   -7.465860|    2.318067|
|         157|  8.4030e+00|  5.7074e-09|  7.7124e-01|  5.0000e-01|  5.0000e-01|  5.0000e-01|   -4.653204|   -4.740725|   -5.312922|   -5.088748|   -4.932024|   -7.466661|    2.318308|
|         158|  8.4017e+00|  5.7074e-09|  7.7124e-01|  5.0000e-01|  5.0000e-01|  5.0000e-01|   -4.653090|   -4.740668|   -5.312947|   -5.088610|   -4.931974|   -7.467463|    2.318548|
|         159|  8.4007e+00|  5.7075e-09|  7.7124e-01|  5.0000e-01|  5.0000e-01|  5.0000e-01|   -4.652976|   -4.740610|   -5.312972|   -5.088474|   -4.931924|   -7.468265|    2.318788|
|         160|  8.3995e+00|  5.7075e-09|  7.7124e-01|  5.0000e-01|  5.0000e-01|  5.0000e-01|   -4.652859|   -4.740548|   -5.312995|   -5.088337|   -4.931871|   -7.469066|    2.319027|
|         161|  8.3978e+00|  5.7075e-09|  7.7124e-01|  5.0000e-01|  5.0000e-01|  5.0000e-01|   -4.652739|   -4.740482|   -5.313016|   -5.088200|   -4.931815|   -7.469868|    2.319265|
|         162|  8.3965e+00|  5.7075e-09|  7.7124e-01|  5.0000e-01|  5.0000e-01|  5.0000e-01|   -4.652617|   -4.740414|   -5.313037|   -5.088062|   -4.931757|   -7.470669|    2.319502|
|         163|  8.3936e+00|  5.7075e-09|  7.7124e-01|  5.0000e-01|  5.0000e-01|  5.0000e-01|   -4.652492|   -4.740341|   -5.313056|   -5.087923|   -4.931695|   -7.471471|    2.319739|
|         164|  8.3911e+00|  5.7075e-09|  7.7125e-01|  5.0000e-01|  5.0000e-01|  5.0000e-01|   -4.652362|   -4.740262|   -5.313070|   -5.087782|   -4.931628|   -7.472273|    2.319974|
|         165|  8.3899e+00|  5.7075e-09|  7.7125e-01|  5.0000e-01|  5.0000e-01|  5.0000e-01|   -4.652229|   -4.740179|   -5.313081|   -5.087641|   -4.931558|   -7.473074|    2.320209|
|         166|  8.3878e+00|  5.7076e-09|  7.7125e-01|  5.0000e-01|  5.0000e-01|  5.0000e-01|   -4.652093|   -4.740092|   -5.313091|   -5.087499|   -4.931484|   -7.473875|    2.320444|
|         167|  8.3858e+00|  5.7076e-09|  7.7125e-01|  5.0000e-01|  5.0000e-01|  5.0000e-01|   -4.651955|   -4.740002|   -5.313101|   -5.087356|   -4.931408|   -7.474676|    2.320677|
|         168|  8.3840e+00|  5.7076e-09|  7.7125e-01|  5.0000e-01|  5.0000e-01|  5.0000e-01|   -4.651814|   -4.739907|   -5.313110|   -5.087212|   -4.931329|   -7.475477|    2.320910|
|         169|  8.3821e+00|  5.7076e-09|  7.7125e-01|  5.0000e-01|  5.0000e-01|  5.0000e-01|   -4.651670|   -4.739808|   -5.313118|   -5.087066|   -4.931246|   -7.476277|    2.321142|
|         170|  8.3806e+00|  5.7076e-09|  7.7125e-01|  5.0000e-01|  5.0000e-01|  5.0000e-01|   -4.651523|   -4.739703|   -5.313125|   -5.086917|   -4.931160|   -7.477077|    2.321373|
|         171|  8.3791e+00|  5.7076e-09|  7.7125e-01|  5.0000e-01|  5.0000e-01|  5.0000e-01|   -4.651374|   -4.739595|   -5.313131|   -5.086768|   -4.931070|   -7.477875|    2.321603|
|         172|  8.3770e+00|  5.7076e-09|  7.7125e-01|  5.0000e-01|  5.0000e-01|  5.0000e-01|   -4.651223|   -4.739484|   -5.313138|   -5.086617|   -4.930979|   -7.478674|    2.321833|
|         173|  8.3755e+00|  5.7077e-09|  7.7125e-01|  5.0000e-01|  5.0000e-01|  5.0000e-01|   -4.651070|   -4.739368|   -5.313145|   -5.086468|   -4.930886|   -7.479472|    2.322062|
|         174|  8.3758e+00|  5.7077e-09|  7.7125e-01|  5.0000e-01|  5.0000e-01|  5.0000e-01|   -4.650916|   -4.739250|   -5.313152|   -5.086317|   -4.930790|   -7.480270|    2.322290|
|         175|  8.3754e+00|  5.7077e-09|  7.7125e-01|  5.0000e-01|  5.0000e-01|  5.0000e-01|   -4.650761|   -4.739128|   -5.313160|   -5.086168|   -4.930693|   -7.481068|    2.322517|
|         176|  8.3753e+00|  5.7077e-09|  7.7125e-01|  5.0000e-01|  5.0000e-01|  5.0000e-01|   -4.650603|   -4.739002|   -5.313167|   -5.086018|   -4.930593|   -7.481865|    2.322743|
|         177|  8.3733e+00|  5.7077e-09|  7.7125e-01|  5.0000e-01|  5.0000e-01|  5.0000e-01|   -4.650445|   -4.738873|   -5.313174|   -5.085868|   -4.930491|   -7.482662|    2.322969|
|         178|  8.3725e+00|  5.7077e-09|  7.7125e-01|  5.0000e-01|  5.0000e-01|  5.0000e-01|   -4.650284|   -4.738740|   -5.313181|   -5.085717|   -4.930386|   -7.483458|    2.323193|
|         179|  8.3707e+00|  5.7078e-09|  7.7125e-01|  5.0000e-01|  5.0000e-01|  5.0000e-01|   -4.650121|   -4.738602|   -5.313187|   -5.085566|   -4.930279|   -7.484254|    2.323417|
|         180|  8.3692e+00|  5.7078e-09|  7.7125e-01|  5.0000e-01|  5.0000e-01|  5.0000e-01|   -4.649957|   -4.738463|   -5.313193|   -5.085416|   -4.930170|   -7.485049|    2.323640|
|         181|  8.3672e+00|  5.7078e-09|  7.7125e-01|  5.0000e-01|  5.0000e-01|  5.0000e-01|   -4.649792|   -4.738319|   -5.313200|   -5.085267|   -4.930059|   -7.485844|    2.323863|
|         182|  8.3659e+00|  5.7078e-09|  7.7125e-01|  5.0000e-01|  5.0000e-01|  5.0000e-01|   -4.649624|   -4.738173|   -5.313206|   -5.085117|   -4.929946|   -7.486637|    2.324084|
|         183|  8.3647e+00|  5.7078e-09|  7.7125e-01|  5.0000e-01|  5.0000e-01|  5.0000e-01|   -4.649455|   -4.738024|   -5.313212|   -5.084968|   -4.929830|   -7.487430|    2.324305|
|         184|  8.3631e+00|  5.7078e-09|  7.7125e-01|  5.0000e-01|  5.0000e-01|  5.0000e-01|   -4.649285|   -4.737873|   -5.313219|   -5.084818|   -4.929713|   -7.488222|    2.324525|
|         185|  8.3608e+00|  5.7078e-09|  7.7125e-01|  5.0000e-01|  5.0000e-01|  5.0000e-01|   -4.649119|   -4.737724|   -5.313226|   -5.084674|   -4.929601|   -7.489013|    2.324744|
|         186|  8.3589e+00|  5.7079e-09|  7.7125e-01|  5.0000e-01|  5.0000e-01|  5.0000e-01|   -4.648955|   -4.737576|   -5.313233|   -5.084534|   -4.929491|   -7.489804|    2.324962|
|         187|  8.3577e+00|  5.7079e-09|  7.7125e-01|  5.0000e-01|  5.0000e-01|  5.0000e-01|   -4.648790|   -4.737426|   -5.313239|   -5.084393|   -4.929379|   -7.490593|    2.325179|
|         188|  8.3557e+00|  5.7079e-09|  7.7125e-01|  5.0000e-01|  5.0000e-01|  5.0000e-01|   -4.648624|   -4.737271|   -5.313244|   -5.084254|   -4.929265|   -7.491381|    2.325395|
|         189|  8.3578e+00|  5.7079e-09|  7.7125e-01|  5.0000e-01|  5.0000e-01|  5.0000e-01|   -4.648456|   -4.737114|   -5.313249|   -5.084114|   -4.929148|   -7.492167|    2.325611|
|         190|  8.3564e+00|  5.7079e-09|  7.7125e-01|  5.0000e-01|  5.0000e-01|  5.0000e-01|   -4.648286|   -4.736954|   -5.313253|   -5.083975|   -4.929029|   -7.492953|    2.325826|
|         191|  8.3556e+00|  5.7079e-09|  7.7125e-01|  5.0000e-01|  5.0000e-01|  5.0000e-01|   -4.648115|   -4.736791|   -5.313257|   -5.083837|   -4.928909|   -7.493737|    2.326040|
|         192|  8.3541e+00|  5.7080e-09|  7.7125e-01|  5.0000e-01|  5.0000e-01|  5.0000e-01|   -4.647942|   -4.736626|   -5.313261|   -5.083701|   -4.928787|   -7.494520|    2.326253|
|         193|  8.3523e+00|  5.7080e-09|  7.7125e-01|  5.0000e-01|  5.0000e-01|  5.0000e-01|   -4.647768|   -4.736457|   -5.313264|   -5.083565|   -4.928662|   -7.495302|    2.326465|
|         194|  8.3514e+00|  5.7080e-09|  7.7125e-01|  5.0000e-01|  5.0000e-01|  5.0000e-01|   -4.647592|   -4.736286|   -5.313268|   -5.083429|   -4.928534|   -7.496083|    2.326676|
|         195|  8.3501e+00|  5.7080e-09|  7.7125e-01|  5.0000e-01|  5.0000e-01|  5.0000e-01|   -4.647415|   -4.736113|   -5.313271|   -5.083295|   -4.928406|   -7.496862|    2.326887|
|         196|  8.3484e+00|  5.7080e-09|  7.7125e-01|  5.0000e-01|  5.0000e-01|  5.0000e-01|   -4.647236|   -4.735936|   -5.313275|   -5.083162|   -4.928275|   -7.497640|    2.327096|
|         197|  8.3471e+00|  5.7080e-09|  7.7125e-01|  5.0000e-01|  5.0000e-01|  5.0000e-01|   -4.647053|   -4.735756|   -5.313277|   -5.083027|   -4.928141|   -7.498416|    2.327305|
|         198|  8.3459e+00|  5.7081e-09|  7.7125e-01|  5.0000e-01|  5.0000e-01|  5.0000e-01|   -4.646868|   -4.735572|   -5.313277|   -5.082891|   -4.928003|   -7.499190|    2.327513|
|         199|  8.3443e+00|  5.7081e-09|  7.7125e-01|  5.0000e-01|  5.0000e-01|  5.0000e-01|   -4.646680|   -4.735385|   -5.313277|   -5.082755|   -4.927862|   -7.499963|    2.327720|
|         200|  8.3430e+00|  5.7081e-09|  7.7125e-01|  5.0000e-01|  5.0000e-01|  5.0000e-01|   -4.646489|   -4.735194|   -5.313276|   -5.082618|   -4.927718|   -7.500735|    2.327926|
|         201|  8.3418e+00|  5.7081e-09|  7.7125e-01|  5.0000e-01|  5.0000e-01|  5.0000e-01|   -4.646297|   -4.735000|   -5.313277|   -5.082481|   -4.927571|   -7.501504|    2.328131|
|         202|  8.3408e+00|  5.7081e-09|  7.7125e-01|  5.0000e-01|  5.0000e-01|  5.0000e-01|   -4.646103|   -4.734803|   -5.313277|   -5.082344|   -4.927423|   -7.502271|    2.328336|
|         203|  8.3390e+00|  5.7081e-09|  7.7125e-01|  5.0000e-01|  5.0000e-01|  5.0000e-01|   -4.645906|   -4.734602|   -5.313278|   -5.082207|   -4.927271|   -7.503038|    2.328540|
|         204|  8.3376e+00|  5.7081e-09|  7.7125e-01|  5.0000e-01|  5.0000e-01|  5.0000e-01|   -4.645708|   -4.734398|   -5.313279|   -5.082070|   -4.927117|   -7.503803|    2.328742|
|         205|  8.3367e+00|  5.7082e-09|  7.7125e-01|  5.0000e-01|  5.0000e-01|  5.0000e-01|   -4.645508|   -4.734191|   -5.313279|   -5.081933|   -4.926960|   -7.504566|    2.328944|
|         206|  8.3350e+00|  5.7082e-09|  7.7125e-01|  5.0000e-01|  5.0000e-01|  5.0000e-01|   -4.645306|   -4.733980|   -5.313279|   -5.081795|   -4.926801|   -7.505327|    2.329145|
|         207|  8.3333e+00|  5.7082e-09|  7.7125e-01|  5.0000e-01|  5.0000e-01|  5.0000e-01|   -4.645102|   -4.733766|   -5.313278|   -5.081658|   -4.926640|   -7.506086|    2.329346|
|         208|  8.3316e+00|  5.7082e-09|  7.7125e-01|  5.0000e-01|  5.0000e-01|  5.0000e-01|   -4.644897|   -4.733550|   -5.313275|   -5.081525|   -4.926478|   -7.506842|    2.329545|
|         209|  8.3292e+00|  5.7082e-09|  7.7125e-01|  5.0000e-01|  5.0000e-01|  5.0000e-01|   -4.644692|   -4.733331|   -5.313273|   -5.081394|   -4.926314|   -7.507596|    2.329744|
|         210|  8.3271e+00|  5.7082e-09|  7.7125e-01|  5.0000e-01|  5.0000e-01|  5.0000e-01|   -4.644484|   -4.733110|   -5.313272|   -5.081262|   -4.926148|   -7.508353|    2.329941|
|         211|  8.3248e+00|  5.7083e-09|  7.7125e-01|  5.0000e-01|  5.0000e-01|  5.0000e-01|   -4.644276|   -4.732887|   -5.313270|   -5.081131|   -4.925980|   -7.509111|    2.330138|
|         212|  8.3233e+00|  5.7083e-09|  7.7125e-01|  5.0000e-01|  5.0000e-01|  5.0000e-01|   -4.644073|   -4.732668|   -5.313273|   -5.081010|   -4.925818|   -7.509865|    2.330335|
|         213|  8.3220e+00|  5.7083e-09|  7.7125e-01|  5.0000e-01|  5.0000e-01|  5.0000e-01|   -4.643880|   -4.732460|   -5.313279|   -5.080901|   -4.925668|   -7.510617|    2.330530|
|         214|  8.3210e+00|  5.7083e-09|  7.7125e-01|  5.0000e-01|  5.0000e-01|  5.0000e-01|   -4.643684|   -4.732248|   -5.313283|   -5.080790|   -4.925514|   -7.511365|    2.330724|
|         215|  8.3195e+00|  5.7083e-09|  7.7125e-01|  5.0000e-01|  5.0000e-01|  5.0000e-01|   -4.643485|   -4.732032|   -5.313285|   -5.080677|   -4.925357|   -7.512110|    2.330918|
|         216|  8.3172e+00|  5.7083e-09|  7.7125e-01|  5.0000e-01|  5.0000e-01|  5.0000e-01|   -4.643285|   -4.731813|   -5.313286|   -5.080564|   -4.925197|   -7.512852|    2.331111|
|         217|  8.3155e+00|  5.7084e-09|  7.7125e-01|  5.0000e-01|  5.0000e-01|  5.0000e-01|   -4.643082|   -4.731589|   -5.313283|   -5.080451|   -4.925033|   -7.513590|    2.331303|
|         218|  8.3146e+00|  5.7084e-09|  7.7125e-01|  5.0000e-01|  5.0000e-01|  5.0000e-01|   -4.642877|   -4.731362|   -5.313280|   -5.080336|   -4.924866|   -7.514325|    2.331494|
|         219|  8.3170e+00|  5.7084e-09|  7.7125e-01|  5.0000e-01|  5.0000e-01|  5.0000e-01|   -4.642669|   -4.731132|   -5.313275|   -5.080220|   -4.924697|   -7.515056|    2.331685|
|         220|  8.3167e+00|  5.7084e-09|  7.7125e-01|  5.0000e-01|  5.0000e-01|  5.0000e-01|   -4.642461|   -4.730898|   -5.313268|   -5.080106|   -4.924525|   -7.515784|    2.331875|
|         221|  8.3166e+00|  5.7084e-09|  7.7125e-01|  5.0000e-01|  5.0000e-01|  5.0000e-01|   -4.642252|   -4.730662|   -5.313259|   -5.079990|   -4.924351|   -7.516509|    2.332064|
|         222|  8.3167e+00|  5.7084e-09|  7.7125e-01|  5.0000e-01|  5.0000e-01|  5.0000e-01|   -4.642040|   -4.730422|   -5.313249|   -5.079873|   -4.924175|   -7.517229|    2.332252|
|         223|  8.3157e+00|  5.7085e-09|  7.7125e-01|  5.0000e-01|  5.0000e-01|  5.0000e-01|   -4.641826|   -4.730179|   -5.313235|   -5.079756|   -4.923995|   -7.517946|    2.332439|
|         224|  8.3150e+00|  5.7085e-09|  7.7125e-01|  5.0000e-01|  5.0000e-01|  5.0000e-01|   -4.641610|   -4.729932|   -5.313219|   -5.079638|   -4.923812|   -7.518658|    2.332626|
|         225|  8.3139e+00|  5.7085e-09|  7.7125e-01|  5.0000e-01|  5.0000e-01|  5.0000e-01|   -4.641391|   -4.729682|   -5.313200|   -5.079520|   -4.923626|   -7.519367|    2.332811|
|         226|  8.3127e+00|  5.7085e-09|  7.7125e-01|  5.0000e-01|  5.0000e-01|  5.0000e-01|   -4.641172|   -4.729430|   -5.313181|   -5.079403|   -4.923438|   -7.520072|    2.332997|
|         227|  8.3116e+00|  5.7085e-09|  7.7125e-01|  5.0000e-01|  5.0000e-01|  5.0000e-01|   -4.640950|   -4.729174|   -5.313160|   -5.079285|   -4.923248|   -7.520772|    2.333181|
|         228|  8.3108e+00|  5.7085e-09|  7.7125e-01|  5.0000e-01|  5.0000e-01|  5.0000e-01|   -4.640727|   -4.728916|   -5.313136|   -5.079167|   -4.923055|   -7.521468|    2.333364|
|         229|  8.3095e+00|  5.7086e-09|  7.7125e-01|  5.0000e-01|  5.0000e-01|  5.0000e-01|   -4.640502|   -4.728655|   -5.313112|   -5.079049|   -4.922860|   -7.522160|    2.333547|
|         230|  8.3084e+00|  5.7086e-09|  7.7125e-01|  5.0000e-01|  5.0000e-01|  5.0000e-01|   -4.640275|   -4.728391|   -5.313086|   -5.078932|   -4.922662|   -7.522847|    2.333729|
|         231|  8.3073e+00|  5.7086e-09|  7.7125e-01|  5.0000e-01|  5.0000e-01|  5.0000e-01|   -4.640046|   -4.728124|   -5.313059|   -5.078815|   -4.922462|   -7.523530|    2.333910|
|         232|  8.3057e+00|  5.7086e-09|  7.7125e-01|  5.0000e-01|  5.0000e-01|  5.0000e-01|   -4.639817|   -4.727855|   -5.313031|   -5.078698|   -4.922261|   -7.524208|    2.334091|
|         233|  8.3045e+00|  5.7086e-09|  7.7125e-01|  5.0000e-01|  5.0000e-01|  5.0000e-01|   -4.639588|   -4.727584|   -5.313003|   -5.078583|   -4.922059|   -7.524881|    2.334271|
|         234|  8.3033e+00|  5.7086e-09|  7.7125e-01|  5.0000e-01|  5.0000e-01|  5.0000e-01|   -4.639357|   -4.727312|   -5.312972|   -5.078468|   -4.921855|   -7.525550|    2.334450|
|         235|  8.3015e+00|  5.7087e-09|  7.7125e-01|  5.0000e-01|  5.0000e-01|  5.0000e-01|   -4.639125|   -4.727038|   -5.312940|   -5.078356|   -4.921651|   -7.526214|    2.334628|
|         236|  8.3000e+00|  5.7087e-09|  7.7125e-01|  5.0000e-01|  5.0000e-01|  5.0000e-01|   -4.638893|   -4.726763|   -5.312908|   -5.078245|   -4.921444|   -7.526873|    2.334805|
|         237|  8.2985e+00|  5.7087e-09|  7.7125e-01|  5.0000e-01|  5.0000e-01|  5.0000e-01|   -4.638659|   -4.726485|   -5.312874|   -5.078135|   -4.921236|   -7.527527|    2.334982|
|         238|  8.2965e+00|  5.7087e-09|  7.7125e-01|  5.0000e-01|  5.0000e-01|  5.0000e-01|   -4.638424|   -4.726205|   -5.312839|   -5.078028|   -4.921027|   -7.528176|    2.335158|
|         239|  8.2946e+00|  5.7087e-09|  7.7125e-01|  5.0000e-01|  5.0000e-01|  5.0000e-01|   -4.638188|   -4.725924|   -5.312804|   -5.077923|   -4.920817|   -7.528820|    2.335334|
|         240|  8.2935e+00|  5.7087e-09|  7.7125e-01|  5.0000e-01|  5.0000e-01|  5.0000e-01|   -4.637951|   -4.725641|   -5.312767|   -5.077818|   -4.920604|   -7.529458|    2.335508|
|         241|  8.2919e+00|  5.7087e-09|  7.7125e-01|  5.0000e-01|  5.0000e-01|  5.0000e-01|   -4.637713|   -4.725356|   -5.312729|   -5.077717|   -4.920391|   -7.530091|    2.335682|
|         242|  8.2905e+00|  5.7088e-09|  7.7125e-01|  5.0000e-01|  5.0000e-01|  5.0000e-01|   -4.637474|   -4.725069|   -5.312692|   -5.077617|   -4.920176|   -7.530718|    2.335855|
|         243|  8.2889e+00|  5.7088e-09|  7.7125e-01|  5.0000e-01|  5.0000e-01|  5.0000e-01|   -4.637234|   -4.724781|   -5.312655|   -5.077520|   -4.919961|   -7.531339|    2.336028|
|         244|  8.2879e+00|  5.7088e-09|  7.7125e-01|  5.0000e-01|  5.0000e-01|  5.0000e-01|   -4.636994|   -4.724493|   -5.312619|   -5.077425|   -4.919745|   -7.531954|    2.336199|
|         245|  8.2864e+00|  5.7088e-09|  7.7125e-01|  5.0000e-01|  5.0000e-01|  5.0000e-01|   -4.636753|   -4.724202|   -5.312584|   -5.077332|   -4.919528|   -7.532564|    2.336370|
|         246|  8.2852e+00|  5.7088e-09|  7.7125e-01|  5.0000e-01|  5.0000e-01|  5.0000e-01|   -4.636511|   -4.723910|   -5.312548|   -5.077241|   -4.919310|   -7.533167|    2.336540|
|         247|  8.2836e+00|  5.7088e-09|  7.7125e-01|  5.0000e-01|  5.0000e-01|  5.0000e-01|   -4.636270|   -4.723618|   -5.312514|   -5.077156|   -4.919093|   -7.533765|    2.336710|
|         248|  8.2819e+00|  5.7089e-09|  7.7125e-01|  5.0000e-01|  5.0000e-01|  5.0000e-01|   -4.636029|   -4.723325|   -5.312480|   -5.077076|   -4.918877|   -7.534357|    2.336879|
|         249|  8.2806e+00|  5.7089e-09|  7.7125e-01|  5.0000e-01|  5.0000e-01|  5.0000e-01|   -4.635788|   -4.723030|   -5.312446|   -5.076996|   -4.918660|   -7.534942|    2.337047|
|         250|  8.2796e+00|  5.7089e-09|  7.7125e-01|  5.0000e-01|  5.0000e-01|  5.0000e-01|   -4.635544|   -4.722733|   -5.312411|   -5.076918|   -4.918441|   -7.535521|    2.337214|
|         251|  8.2789e+00|  5.7089e-09|  7.7125e-01|  5.0000e-01|  5.0000e-01|  5.0000e-01|   -4.635300|   -4.722433|   -5.312376|   -5.076842|   -4.918220|   -7.536095|    2.337380|
|         252|  8.2781e+00|  5.7089e-09|  7.7125e-01|  5.0000e-01|  5.0000e-01|  5.0000e-01|   -4.635054|   -4.722131|   -5.312340|   -5.076767|   -4.917997|   -7.536661|    2.337546|
|         253|  8.2767e+00|  5.7089e-09|  7.7125e-01|  5.0000e-01|  5.0000e-01|  5.0000e-01|   -4.634807|   -4.721826|   -5.312304|   -5.076693|   -4.917773|   -7.537221|    2.337711|
|         254|  8.2758e+00|  5.7090e-09|  7.7125e-01|  5.0000e-01|  5.0000e-01|  5.0000e-01|   -4.634559|   -4.721519|   -5.312268|   -5.076620|   -4.917548|   -7.537775|    2.337876|
|         255|  8.2747e+00|  5.7090e-09|  7.7125e-01|  5.0000e-01|  5.0000e-01|  5.0000e-01|   -4.634310|   -4.721209|   -5.312232|   -5.076549|   -4.917321|   -7.538321|    2.338039|
|         256|  8.2732e+00|  5.7090e-09|  7.7125e-01|  5.0000e-01|  5.0000e-01|  5.0000e-01|   -4.634061|   -4.720897|   -5.312197|   -5.076479|   -4.917093|   -7.538861|    2.338202|
|         257|  8.2717e+00|  5.7090e-09|  7.7125e-01|  5.0000e-01|  5.0000e-01|  5.0000e-01|   -4.633812|   -4.720583|   -5.312163|   -5.076411|   -4.916864|   -7.539394|    2.338365|
|         258|  8.2698e+00|  5.7090e-09|  7.7125e-01|  5.0000e-01|  5.0000e-01|  5.0000e-01|   -4.633564|   -4.720269|   -5.312129|   -5.076348|   -4.916637|   -7.539919|    2.338526|
|         259|  8.2686e+00|  5.7090e-09|  7.7125e-01|  5.0000e-01|  5.0000e-01|  5.0000e-01|   -4.633319|   -4.719956|   -5.312095|   -5.076290|   -4.916412|   -7.540437|    2.338687|
|         260|  8.2672e+00|  5.7091e-09|  7.7125e-01|  5.0000e-01|  5.0000e-01|  5.0000e-01|   -4.633073|   -4.719641|   -5.312060|   -5.076233|   -4.916186|   -7.540949|    2.338847|
|         261|  8.2658e+00|  5.7091e-09|  7.7125e-01|  5.0000e-01|  5.0000e-01|  5.0000e-01|   -4.632826|   -4.719324|   -5.312025|   -5.076177|   -4.915959|   -7.541453|    2.339006|
|         262|  8.2650e+00|  5.7091e-09|  7.7125e-01|  5.0000e-01|  5.0000e-01|  5.0000e-01|   -4.632579|   -4.719006|   -5.311988|   -5.076123|   -4.915731|   -7.541949|    2.339165|
|         263|  8.2642e+00|  5.7091e-09|  7.7125e-01|  5.0000e-01|  5.0000e-01|  5.0000e-01|   -4.632332|   -4.718686|   -5.311952|   -5.076071|   -4.915503|   -7.542438|    2.339323|
|         264|  8.2631e+00|  5.7091e-09|  7.7125e-01|  5.0000e-01|  5.0000e-01|  5.0000e-01|   -4.632085|   -4.718365|   -5.311917|   -5.076021|   -4.915274|   -7.542919|    2.339480|
|         265|  8.2616e+00|  5.7091e-09|  7.7125e-01|  5.0000e-01|  5.0000e-01|  5.0000e-01|   -4.631837|   -4.718042|   -5.311881|   -5.075971|   -4.915044|   -7.543392|    2.339636|
|         266|  8.2606e+00|  5.7092e-09|  7.7125e-01|  5.0000e-01|  5.0000e-01|  5.0000e-01|   -4.631588|   -4.717718|   -5.311845|   -5.075923|   -4.914812|   -7.543858|    2.339792|
|         267|  8.2592e+00|  5.7092e-09|  7.7125e-01|  5.0000e-01|  5.0000e-01|  5.0000e-01|   -4.631338|   -4.717391|   -5.311808|   -5.075878|   -4.914579|   -7.544316|    2.339946|
|         268|  8.2578e+00|  5.7092e-09|  7.7125e-01|  5.0000e-01|  5.0000e-01|  5.0000e-01|   -4.631087|   -4.717063|   -5.311770|   -5.075833|   -4.914346|   -7.544765|    2.340100|
|         269|  8.2565e+00|  5.7092e-09|  7.7125e-01|  5.0000e-01|  5.0000e-01|  5.0000e-01|   -4.630835|   -4.716733|   -5.311732|   -5.075790|   -4.914110|   -7.545207|    2.340254|
|         270|  8.2553e+00|  5.7092e-09|  7.7125e-01|  5.0000e-01|  5.0000e-01|  5.0000e-01|   -4.630582|   -4.716401|   -5.311692|   -5.075748|   -4.913873|   -7.545640|    2.340406|
|         271|  8.2540e+00|  5.7092e-09|  7.7125e-01|  5.0000e-01|  5.0000e-01|  5.0000e-01|   -4.630328|   -4.716067|   -5.311650|   -5.075707|   -4.913634|   -7.546064|    2.340558|
|         272|  8.2531e+00|  5.7092e-09|  7.7125e-01|  5.0000e-01|  5.0000e-01|  5.0000e-01|   -4.630072|   -4.715730|   -5.311607|   -5.075668|   -4.913393|   -7.546480|    2.340709|
|         273|  8.2517e+00|  5.7093e-09|  7.7125e-01|  5.0000e-01|  5.0000e-01|  5.0000e-01|   -4.629816|   -4.715393|   -5.311565|   -5.075631|   -4.913152|   -7.546888|    2.340859|
|         274|  8.2505e+00|  5.7093e-09|  7.7125e-01|  5.0000e-01|  5.0000e-01|  5.0000e-01|   -4.629560|   -4.715056|   -5.311521|   -5.075597|   -4.912911|   -7.547286|    2.341009|
|         275|  8.2489e+00|  5.7093e-09|  7.7125e-01|  5.0000e-01|  5.0000e-01|  5.0000e-01|   -4.629307|   -4.714721|   -5.311477|   -5.075573|   -4.912675|   -7.547676|    2.341158|
|         276|  8.2479e+00|  5.7093e-09|  7.7125e-01|  5.0000e-01|  5.0000e-01|  5.0000e-01|   -4.629053|   -4.714385|   -5.311431|   -5.075551|   -4.912437|   -7.548057|    2.341306|
|         277|  8.2471e+00|  5.7093e-09|  7.7125e-01|  5.0000e-01|  5.0000e-01|  5.0000e-01|   -4.628798|   -4.714047|   -5.311386|   -5.075530|   -4.912198|   -7.548429|    2.341453|
|         278|  8.2463e+00|  5.7093e-09|  7.7125e-01|  5.0000e-01|  5.0000e-01|  5.0000e-01|   -4.628542|   -4.713708|   -5.311340|   -5.075510|   -4.911957|   -7.548792|    2.341599|
|         279|  8.2456e+00|  5.7094e-09|  7.7125e-01|  5.0000e-01|  5.0000e-01|  5.0000e-01|   -4.628284|   -4.713366|   -5.311294|   -5.075490|   -4.911715|   -7.549146|    2.341745|
|         280|  8.2450e+00|  5.7094e-09|  7.7125e-01|  5.0000e-01|  5.0000e-01|  5.0000e-01|   -4.628025|   -4.713023|   -5.311247|   -5.075471|   -4.911471|   -7.549490|    2.341889|
|         281|  8.2441e+00|  5.7094e-09|  7.7125e-01|  5.0000e-01|  5.0000e-01|  5.0000e-01|   -4.627766|   -4.712678|   -5.311202|   -5.075453|   -4.911227|   -7.549826|    2.342033|
|         282|  8.2435e+00|  5.7094e-09|  7.7125e-01|  5.0000e-01|  5.0000e-01|  5.0000e-01|   -4.627506|   -4.712332|   -5.311158|   -5.075438|   -4.910982|   -7.550151|    2.342177|
|         283|  8.2422e+00|  5.7094e-09|  7.7125e-01|  5.0000e-01|  5.0000e-01|  5.0000e-01|   -4.627245|   -4.711984|   -5.311113|   -5.075423|   -4.910736|   -7.550467|    2.342319|
|         284|  8.2417e+00|  5.7094e-09|  7.7125e-01|  5.0000e-01|  5.0000e-01|  5.0000e-01|   -4.626982|   -4.711634|   -5.311067|   -5.075406|   -4.910487|   -7.550774|    2.342461|
|         285|  8.2407e+00|  5.7094e-09|  7.7125e-01|  5.0000e-01|  5.0000e-01|  5.0000e-01|   -4.626717|   -4.711281|   -5.311019|   -5.075390|   -4.910236|   -7.551071|    2.342601|
|         286|  8.2400e+00|  5.7095e-09|  7.7125e-01|  5.0000e-01|  5.0000e-01|  5.0000e-01|   -4.626453|   -4.710930|   -5.310973|   -5.075377|   -4.909987|   -7.551358|    2.342741|
|         287|  8.2386e+00|  5.7095e-09|  7.7125e-01|  5.0000e-01|  5.0000e-01|  5.0000e-01|   -4.626189|   -4.710578|   -5.310924|   -5.075367|   -4.909737|   -7.551636|    2.342880|
|         288|  8.2375e+00|  5.7095e-09|  7.7125e-01|  5.0000e-01|  5.0000e-01|  5.0000e-01|   -4.625923|   -4.710224|   -5.310874|   -5.075357|   -4.909485|   -7.551903|    2.343019|
|         289|  8.2369e+00|  5.7095e-09|  7.7125e-01|  5.0000e-01|  5.0000e-01|  5.0000e-01|   -4.625655|   -4.709868|   -5.310824|   -5.075347|   -4.909231|   -7.552161|    2.343156|
|         290|  8.2366e+00|  5.7095e-09|  7.7125e-01|  5.0000e-01|  5.0000e-01|  5.0000e-01|   -4.625390|   -4.709513|   -5.310774|   -5.075342|   -4.908980|   -7.552409|    2.343293|
|         291|  8.2354e+00|  5.7095e-09|  7.7125e-01|  5.0000e-01|  5.0000e-01|  5.0000e-01|   -4.625122|   -4.709156|   -5.310725|   -5.075336|   -4.908726|   -7.552646|    2.343428|
|         292|  8.2343e+00|  5.7095e-09|  7.7125e-01|  5.0000e-01|  5.0000e-01|  5.0000e-01|   -4.624854|   -4.708795|   -5.310675|   -5.075330|   -4.908471|   -7.552874|    2.343563|
|         293|  8.2342e+00|  5.7096e-09|  7.7125e-01|  5.0000e-01|  5.0000e-01|  5.0000e-01|   -4.624583|   -4.708432|   -5.310623|   -5.075323|   -4.908213|   -7.553091|    2.343697|
|         294|  8.2344e+00|  5.7096e-09|  7.7125e-01|  5.0000e-01|  5.0000e-01|  5.0000e-01|   -4.624309|   -4.708066|   -5.310570|   -5.075315|   -4.907952|   -7.553298|    2.343831|
|         295|  8.2344e+00|  5.7096e-09|  7.7125e-01|  5.0000e-01|  5.0000e-01|  5.0000e-01|   -4.624034|   -4.707697|   -5.310515|   -5.075309|   -4.907689|   -7.553495|    2.343963|
|         296|  8.2335e+00|  5.7096e-09|  7.7125e-01|  5.0000e-01|  5.0000e-01|  5.0000e-01|   -4.623757|   -4.707326|   -5.310459|   -5.075304|   -4.907424|   -7.553682|    2.344094|
|         297|  8.2323e+00|  5.7096e-09|  7.7125e-01|  5.0000e-01|  5.0000e-01|  5.0000e-01|   -4.623478|   -4.706953|   -5.310403|   -5.075299|   -4.907157|   -7.553859|    2.344225|
|         298|  8.2310e+00|  5.7096e-09|  7.7125e-01|  5.0000e-01|  5.0000e-01|  5.0000e-01|   -4.623196|   -4.706577|   -5.310345|   -5.075293|   -4.906888|   -7.554023|    2.344355|
|         299|  8.2300e+00|  5.7096e-09|  7.7125e-01|  5.0000e-01|  5.0000e-01|  5.0000e-01|   -4.622914|   -4.706198|   -5.310286|   -5.075288|   -4.906617|   -7.554178|    2.344484|
|         300|  8.2288e+00|  5.7097e-09|  7.7125e-01|  5.0000e-01|  5.0000e-01|  5.0000e-01|   -4.622629|   -4.705818|   -5.310226|   -5.075285|   -4.906344|   -7.554322|    2.344612|
+-----------------------------------------------------------------------+
|        File Writing Summary       |              Filename             |
+-----------------------------------------------------------------------+
|SU2 binary restart                 |restart_flow.dat                   |
|Paraview                           |flow.vtu                           |
|Paraview surface                   |surface_flow.vtu                   |
+-----------------------------------------------------------------------+
+-------------------------------------------------------------------------------------------------------------------------------------------------------------------------------------+
|  Inner_Iter|   Time(sec)|      Min DT|      Max DT|     Min CFL|     Max CFL|     Avg CFL|    rms[Rho]|   rms[RhoU]|   rms[RhoV]|   rms[RhoW]|   rms[RhoE]|     rms[nu]|          CD|
+-------------------------------------------------------------------------------------------------------------------------------------------------------------------------------------+
|         301|  8.3005e+00|  5.7097e-09|  7.7125e-01|  5.0000e-01|  5.0000e-01|  5.0000e-01|   -4.622343|   -4.705435|   -5.310165|   -5.075282|   -4.906069|   -7.554456|    2.344739|
|         302|  8.3007e+00|  5.7097e-09|  7.7125e-01|  5.0000e-01|  5.0000e-01|  5.0000e-01|   -4.622057|   -4.705050|   -5.310104|   -5.075280|   -4.905793|   -7.554579|    2.344865|
|         303|  8.2999e+00|  5.7097e-09|  7.7125e-01|  5.0000e-01|  5.0000e-01|  5.0000e-01|   -4.621769|   -4.704663|   -5.310044|   -5.075279|   -4.905516|   -7.554692|    2.344990|
|         304|  8.2987e+00|  5.7097e-09|  7.7125e-01|  5.0000e-01|  5.0000e-01|  5.0000e-01|   -4.621488|   -4.704282|   -5.309984|   -5.075287|   -4.905245|   -7.554794|    2.345115|
|         305|  8.2975e+00|  5.7097e-09|  7.7125e-01|  5.0000e-01|  5.0000e-01|  5.0000e-01|   -4.621207|   -4.703901|   -5.309925|   -5.075297|   -4.904975|   -7.554886|    2.345238|
|         306|  8.2966e+00|  5.7097e-09|  7.7125e-01|  5.0000e-01|  5.0000e-01|  5.0000e-01|   -4.620925|   -4.703517|   -5.309864|   -5.075308|   -4.904702|   -7.554968|    2.345361|
|         307|  8.2947e+00|  5.7098e-09|  7.7125e-01|  5.0000e-01|  5.0000e-01|  5.0000e-01|   -4.620641|   -4.703131|   -5.309803|   -5.075320|   -4.904428|   -7.555038|    2.345482|
|         308|  8.2927e+00|  5.7098e-09|  7.7125e-01|  5.0000e-01|  5.0000e-01|  5.0000e-01|   -4.620357|   -4.702743|   -5.309742|   -5.075332|   -4.904153|   -7.555099|    2.345603|
|         309|  8.2911e+00|  5.7098e-09|  7.7125e-01|  5.0000e-01|  5.0000e-01|  5.0000e-01|   -4.620071|   -4.702353|   -5.309680|   -5.075345|   -4.903876|   -7.555150|    2.345723|
|         310|  8.2895e+00|  5.7098e-09|  7.7125e-01|  5.0000e-01|  5.0000e-01|  5.0000e-01|   -4.619785|   -4.701961|   -5.309617|   -5.075358|   -4.903598|   -7.555191|    2.345842|
|         311|  8.2878e+00|  5.7098e-09|  7.7125e-01|  5.0000e-01|  5.0000e-01|  5.0000e-01|   -4.619498|   -4.701567|   -5.309554|   -5.075374|   -4.903319|   -7.555220|    2.345960|
|         312|  8.2860e+00|  5.7098e-09|  7.7125e-01|  5.0000e-01|  5.0000e-01|  5.0000e-01|   -4.619210|   -4.701171|   -5.309490|   -5.075390|   -4.903038|   -7.555239|    2.346077|
|         313|  8.2839e+00|  5.7098e-09|  7.7125e-01|  5.0000e-01|  5.0000e-01|  5.0000e-01|   -4.618920|   -4.700774|   -5.309425|   -5.075409|   -4.902757|   -7.555248|    2.346193|
|         314|  8.2821e+00|  5.7098e-09|  7.7125e-01|  5.0000e-01|  5.0000e-01|  5.0000e-01|   -4.618630|   -4.700375|   -5.309359|   -5.075430|   -4.902474|   -7.555245|    2.346308|
|         315|  8.2803e+00|  5.7099e-09|  7.7125e-01|  5.0000e-01|  5.0000e-01|  5.0000e-01|   -4.618339|   -4.699975|   -5.309292|   -5.075452|   -4.902190|   -7.555231|    2.346423|
|         316|  8.2789e+00|  5.7099e-09|  7.7125e-01|  5.0000e-01|  5.0000e-01|  5.0000e-01|   -4.618047|   -4.699573|   -5.309223|   -5.075474|   -4.901905|   -7.555207|    2.346536|
|         317|  8.2767e+00|  5.7099e-09|  7.7125e-01|  5.0000e-01|  5.0000e-01|  5.0000e-01|   -4.617753|   -4.699171|   -5.309153|   -5.075498|   -4.901618|   -7.555172|    2.346648|
|         318|  8.2748e+00|  5.7099e-09|  7.7125e-01|  5.0000e-01|  5.0000e-01|  5.0000e-01|   -4.617457|   -4.698767|   -5.309082|   -5.075523|   -4.901330|   -7.555127|    2.346760|
|         319|  8.2730e+00|  5.7099e-09|  7.7125e-01|  5.0000e-01|  5.0000e-01|  5.0000e-01|   -4.617159|   -4.698361|   -5.309010|   -5.075549|   -4.901039|   -7.555072|    2.346870|
|         320|  8.2712e+00|  5.7099e-09|  7.7124e-01|  5.0000e-01|  5.0000e-01|  5.0000e-01|   -4.616859|   -4.697953|   -5.308937|   -5.075575|   -4.900746|   -7.555005|    2.346980|
|         321|  8.2700e+00|  5.7099e-09|  7.7124e-01|  5.0000e-01|  5.0000e-01|  5.0000e-01|   -4.616557|   -4.697543|   -5.308862|   -5.075601|   -4.900452|   -7.554929|    2.347088|
|         322|  8.2683e+00|  5.7099e-09|  7.7124e-01|  5.0000e-01|  5.0000e-01|  5.0000e-01|   -4.616254|   -4.697132|   -5.308786|   -5.075627|   -4.900155|   -7.554842|    2.347196|
|         323|  8.2667e+00|  5.7100e-09|  7.7124e-01|  5.0000e-01|  5.0000e-01|  5.0000e-01|   -4.615949|   -4.696719|   -5.308710|   -5.075655|   -4.899857|   -7.554744|    2.347303|
|         324|  8.2647e+00|  5.7100e-09|  7.7124e-01|  5.0000e-01|  5.0000e-01|  5.0000e-01|   -4.615644|   -4.696306|   -5.308634|   -5.075686|   -4.899559|   -7.554636|    2.347408|
|         325|  8.2632e+00|  5.7100e-09|  7.7124e-01|  5.0000e-01|  5.0000e-01|  5.0000e-01|   -4.615337|   -4.695891|   -5.308557|   -5.075718|   -4.899260|   -7.554517|    2.347513|
|         326|  8.2611e+00|  5.7100e-09|  7.7124e-01|  5.0000e-01|  5.0000e-01|  5.0000e-01|   -4.615030|   -4.695474|   -5.308480|   -5.075749|   -4.898959|   -7.554389|    2.347617|
|         327|  8.2586e+00|  5.7100e-09|  7.7124e-01|  5.0000e-01|  5.0000e-01|  5.0000e-01|   -4.614720|   -4.695056|   -5.308403|   -5.075782|   -4.898657|   -7.554250|    2.347720|
|         328|  8.2564e+00|  5.7100e-09|  7.7124e-01|  5.0000e-01|  5.0000e-01|  5.0000e-01|   -4.614410|   -4.694637|   -5.308325|   -5.075814|   -4.898353|   -7.554100|    2.347822|
|         329|  8.2544e+00|  5.7100e-09|  7.7124e-01|  5.0000e-01|  5.0000e-01|  5.0000e-01|   -4.614098|   -4.694216|   -5.308245|   -5.075848|   -4.898048|   -7.553941|    2.347923|
|         330|  8.2524e+00|  5.7100e-09|  7.7124e-01|  5.0000e-01|  5.0000e-01|  5.0000e-01|   -4.613786|   -4.693794|   -5.308166|   -5.075884|   -4.897743|   -7.553771|    2.348023|
|         331|  8.2503e+00|  5.7100e-09|  7.7124e-01|  5.0000e-01|  5.0000e-01|  5.0000e-01|   -4.613473|   -4.693372|   -5.308086|   -5.075920|   -4.897437|   -7.553592|    2.348122|
|         332|  8.2484e+00|  5.7101e-09|  7.7124e-01|  5.0000e-01|  5.0000e-01|  5.0000e-01|   -4.613161|   -4.692949|   -5.308008|   -5.075960|   -4.897131|   -7.553403|    2.348220|
|         333|  8.2466e+00|  5.7101e-09|  7.7124e-01|  5.0000e-01|  5.0000e-01|  5.0000e-01|   -4.612849|   -4.692526|   -5.307931|   -5.076000|   -4.896826|   -7.553204|    2.348317|
|         334|  8.2447e+00|  5.7101e-09|  7.7124e-01|  5.0000e-01|  5.0000e-01|  5.0000e-01|   -4.612538|   -4.692105|   -5.307854|   -5.076042|   -4.896522|   -7.552995|    2.348413|
|         335|  8.2428e+00|  5.7101e-09|  7.7124e-01|  5.0000e-01|  5.0000e-01|  5.0000e-01|   -4.612228|   -4.691683|   -5.307778|   -5.076084|   -4.896218|   -7.552777|    2.348508|
|         336|  8.2409e+00|  5.7101e-09|  7.7124e-01|  5.0000e-01|  5.0000e-01|  5.0000e-01|   -4.611918|   -4.691263|   -5.307703|   -5.076126|   -4.895914|   -7.552549|    2.348602|
|         337|  8.2393e+00|  5.7101e-09|  7.7124e-01|  5.0000e-01|  5.0000e-01|  5.0000e-01|   -4.611607|   -4.690842|   -5.307629|   -5.076168|   -4.895610|   -7.552312|    2.348695|
|         338|  8.2384e+00|  5.7101e-09|  7.7124e-01|  5.0000e-01|  5.0000e-01|  5.0000e-01|   -4.611297|   -4.690419|   -5.307556|   -5.076211|   -4.895306|   -7.552066|    2.348788|
|         339|  8.2372e+00|  5.7101e-09|  7.7124e-01|  5.0000e-01|  5.0000e-01|  5.0000e-01|   -4.610985|   -4.689996|   -5.307483|   -5.076253|   -4.895000|   -7.551810|    2.348879|
|         340|  8.2363e+00|  5.7101e-09|  7.7124e-01|  5.0000e-01|  5.0000e-01|  5.0000e-01|   -4.610671|   -4.689570|   -5.307409|   -5.076290|   -4.894691|   -7.551546|    2.348969|
|         341|  8.2350e+00|  5.7101e-09|  7.7124e-01|  5.0000e-01|  5.0000e-01|  5.0000e-01|   -4.610356|   -4.689142|   -5.307335|   -5.076327|   -4.894381|   -7.551272|    2.349059|
|         342|  8.2338e+00|  5.7102e-09|  7.7124e-01|  5.0000e-01|  5.0000e-01|  5.0000e-01|   -4.610040|   -4.688714|   -5.307262|   -5.076365|   -4.894070|   -7.550990|    2.349147|
|         343|  8.2323e+00|  5.7102e-09|  7.7124e-01|  5.0000e-01|  5.0000e-01|  5.0000e-01|   -4.609728|   -4.688289|   -5.307189|   -5.076404|   -4.893762|   -7.550699|    2.349235|
|         344|  8.2308e+00|  5.7102e-09|  7.7124e-01|  5.0000e-01|  5.0000e-01|  5.0000e-01|   -4.609416|   -4.687864|   -5.307117|   -5.076444|   -4.893456|   -7.550399|    2.349321|
|         345|  8.2291e+00|  5.7102e-09|  7.7124e-01|  5.0000e-01|  5.0000e-01|  5.0000e-01|   -4.609105|   -4.687440|   -5.307046|   -5.076485|   -4.893149|   -7.550091|    2.349407|
|         346|  8.2281e+00|  5.7102e-09|  7.7124e-01|  5.0000e-01|  5.0000e-01|  5.0000e-01|   -4.608793|   -4.687014|   -5.306974|   -5.076526|   -4.892842|   -7.549774|    2.349492|
|         347|  8.2270e+00|  5.7102e-09|  7.7124e-01|  5.0000e-01|  5.0000e-01|  5.0000e-01|   -4.608482|   -4.686588|   -5.306902|   -5.076568|   -4.892534|   -7.549449|    2.349576|
|         348|  8.2255e+00|  5.7102e-09|  7.7124e-01|  5.0000e-01|  5.0000e-01|  5.0000e-01|   -4.608170|   -4.686162|   -5.306831|   -5.076611|   -4.892226|   -7.549116|    2.349659|
|         349|  8.2242e+00|  5.7102e-09|  7.7124e-01|  5.0000e-01|  5.0000e-01|  5.0000e-01|   -4.607859|   -4.685736|   -5.306761|   -5.076656|   -4.891920|   -7.548774|    2.349741|
[...]
|        6123|  7.3949e+00|  5.6095e-09|  7.7122e-01|  5.0000e-01|  5.0000e-01|  5.0000e-01|   -4.999166|   -5.075670|   -5.704863|   -5.499787|   -5.280943|   -7.611828|    2.377560|
|        6124|  7.3948e+00|  5.6094e-09|  7.7122e-01|  5.0000e-01|  5.0000e-01|  5.0000e-01|   -4.998620|   -5.075050|   -5.704636|   -5.499814|   -5.280541|   -7.611957|    2.377725|
|        6125|  7.3947e+00|  5.6093e-09|  7.7122e-01|  5.0000e-01|  5.0000e-01|  5.0000e-01|   -4.998070|   -5.074425|   -5.704408|   -5.499835|   -5.280134|   -7.612087|    2.377889|
|        6126|  7.3946e+00|  5.6092e-09|  7.7122e-01|  5.0000e-01|  5.0000e-01|  5.0000e-01|   -4.997516|   -5.073795|   -5.704179|   -5.499849|   -5.279721|   -7.612219|    2.378051|
|        6127|  7.3946e+00|  5.6091e-09|  7.7122e-01|  5.0000e-01|  5.0000e-01|  5.0000e-01|   -4.996957|   -5.073160|   -5.703949|   -5.499857|   -5.279303|   -7.612353|    2.378212|
|        6128|  7.3945e+00|  5.6090e-09|  7.7122e-01|  5.0000e-01|  5.0000e-01|  5.0000e-01|   -4.996394|   -5.072519|   -5.703717|   -5.499859|   -5.278878|   -7.612488|    2.378373|
|        6129|  7.3945e+00|  5.6089e-09|  7.7122e-01|  5.0000e-01|  5.0000e-01|  5.0000e-01|   -4.995825|   -5.071874|   -5.703484|   -5.499856|   -5.278450|   -7.612625|    2.378532|
|        6130|  7.3944e+00|  5.6089e-09|  7.7122e-01|  5.0000e-01|  5.0000e-01|  5.0000e-01|   -4.995253|   -5.071223|   -5.703250|   -5.499846|   -5.278015|   -7.612764|    2.378689|
|        6131|  7.3944e+00|  5.6088e-09|  7.7122e-01|  5.0000e-01|  5.0000e-01|  5.0000e-01|   -4.994675|   -5.070567|   -5.703015|   -5.499830|   -5.277575|   -7.612904|    2.378846|
|        6132|  7.3943e+00|  5.6087e-09|  7.7122e-01|  5.0000e-01|  5.0000e-01|  5.0000e-01|   -4.994094|   -5.069906|   -5.702778|   -5.499808|   -5.277131|   -7.613046|    2.379002|
|        6133|  7.3942e+00|  5.6086e-09|  7.7122e-01|  5.0000e-01|  5.0000e-01|  5.0000e-01|   -4.993510|   -5.069242|   -5.702540|   -5.499780|   -5.276682|   -7.613189|    2.379156|
|        6134|  7.3941e+00|  5.6085e-09|  7.7122e-01|  5.0000e-01|  5.0000e-01|  5.0000e-01|   -4.992921|   -5.068573|   -5.702299|   -5.499746|   -5.276228|   -7.613334|    2.379309|
|        6135|  7.3941e+00|  5.6084e-09|  7.7122e-01|  5.0000e-01|  5.0000e-01|  5.0000e-01|   -4.992329|   -5.067901|   -5.702057|   -5.499706|   -5.275770|   -7.613481|    2.379461|
|        6136|  7.3940e+00|  5.6083e-09|  7.7122e-01|  5.0000e-01|  5.0000e-01|  5.0000e-01|   -4.991732|   -5.067224|   -5.701815|   -5.499659|   -5.275307|   -7.613629|    2.379612|
|        6137|  7.3939e+00|  5.6082e-09|  7.7122e-01|  5.0000e-01|  5.0000e-01|  5.0000e-01|   -4.991131|   -5.066542|   -5.701570|   -5.499607|   -5.274838|   -7.613778|    2.379761|
|        6138|  7.3939e+00|  5.6081e-09|  7.7122e-01|  5.0000e-01|  5.0000e-01|  5.0000e-01|   -4.990525|   -5.065854|   -5.701324|   -5.499549|   -5.274363|   -7.613928|    2.379910|
|        6139|  7.3938e+00|  5.6080e-09|  7.7122e-01|  5.0000e-01|  5.0000e-01|  5.0000e-01|   -4.989916|   -5.065163|   -5.701076|   -5.499484|   -5.273883|   -7.614080|    2.380057|
|        6140|  7.3937e+00|  5.6079e-09|  7.7122e-01|  5.0000e-01|  5.0000e-01|  5.0000e-01|   -4.989302|   -5.064468|   -5.700828|   -5.499413|   -5.273399|   -7.614233|    2.380203|
|        6141|  7.3936e+00|  5.6078e-09|  7.7122e-01|  5.0000e-01|  5.0000e-01|  5.0000e-01|   -4.988686|   -5.063769|   -5.700579|   -5.499337|   -5.272910|   -7.614388|    2.380348|
|        6142|  7.3935e+00|  5.6078e-09|  7.7122e-01|  5.0000e-01|  5.0000e-01|  5.0000e-01|   -4.988065|   -5.063066|   -5.700328|   -5.499254|   -5.272416|   -7.614543|    2.380491|
|        6143|  7.3935e+00|  5.6077e-09|  7.7122e-01|  5.0000e-01|  5.0000e-01|  5.0000e-01|   -4.987439|   -5.062356|   -5.700076|   -5.499165|   -5.271915|   -7.614699|    2.380634|
|        6144|  7.3934e+00|  5.6076e-09|  7.7122e-01|  5.0000e-01|  5.0000e-01|  5.0000e-01|   -4.986808|   -5.061642|   -5.699823|   -5.499069|   -5.271409|   -7.614857|    2.380775|
|        6145|  7.3933e+00|  5.6075e-09|  7.7122e-01|  5.0000e-01|  5.0000e-01|  5.0000e-01|   -4.986172|   -5.060923|   -5.699568|   -5.498967|   -5.270897|   -7.615015|    2.380915|
|        6146|  7.3932e+00|  5.6074e-09|  7.7122e-01|  5.0000e-01|  5.0000e-01|  5.0000e-01|   -4.985532|   -5.060200|   -5.699312|   -5.498859|   -5.270380|   -7.615173|    2.381053|
|        6147|  7.3932e+00|  5.6073e-09|  7.7122e-01|  5.0000e-01|  5.0000e-01|  5.0000e-01|   -4.984889|   -5.059472|   -5.699056|   -5.498745|   -5.269858|   -7.615333|    2.381191|
|        6148|  7.3931e+00|  5.6072e-09|  7.7122e-01|  5.0000e-01|  5.0000e-01|  5.0000e-01|   -4.984242|   -5.058741|   -5.698800|   -5.498625|   -5.269332|   -7.615493|    2.381327|
|        6149|  7.3930e+00|  5.6071e-09|  7.7122e-01|  5.0000e-01|  5.0000e-01|  5.0000e-01|   -4.983593|   -5.058008|   -5.698544|   -5.498501|   -5.268803|   -7.615653|    2.381462|
|        6150|  7.3929e+00|  5.6070e-09|  7.7122e-01|  5.0000e-01|  5.0000e-01|  5.0000e-01|   -4.982942|   -5.057271|   -5.698287|   -5.498370|   -5.268270|   -7.615814|    2.381596|
+-----------------------------------------------------------------------+
|        File Writing Summary       |              Filename             |
+-----------------------------------------------------------------------+
|SU2 binary restart                 |restart_flow.dat                   |
|Paraview                           |flow.vtu                           |
|Paraview surface                   |surface_flow.vtu                   |
+-----------------------------------------------------------------------+
+-------------------------------------------------------------------------------------------------------------------------------------------------------------------------------------+
|  Inner_Iter|   Time(sec)|      Min DT|      Max DT|     Min CFL|     Max CFL|     Avg CFL|    rms[Rho]|   rms[RhoU]|   rms[RhoV]|   rms[RhoW]|   rms[RhoE]|     rms[nu]|          CD|
+-------------------------------------------------------------------------------------------------------------------------------------------------------------------------------------+
|        6151|  7.3964e+00|  5.6069e-09|  7.7122e-01|  5.0000e-01|  5.0000e-01|  5.0000e-01|   -4.982287|   -5.056530|   -5.698030|   -5.498234|   -5.267732|   -7.615976|    2.381728|
|        6152|  7.3964e+00|  5.6068e-09|  7.7122e-01|  5.0000e-01|  5.0000e-01|  5.0000e-01|   -4.981628|   -5.055785|   -5.697772|   -5.498093|   -5.267189|   -7.616138|    2.381859|
|        6153|  7.3964e+00|  5.6067e-09|  7.7122e-01|  5.0000e-01|  5.0000e-01|  5.0000e-01|   -4.980967|   -5.055037|   -5.697513|   -5.497946|   -5.266643|   -7.616300|    2.381989|
|        6154|  7.3963e+00|  5.6066e-09|  7.7122e-01|  5.0000e-01|  5.0000e-01|  5.0000e-01|   -4.980303|   -5.054286|   -5.697253|   -5.497793|   -5.266092|   -7.616462|    2.382118|
|        6155|  7.3963e+00|  5.6065e-09|  7.7122e-01|  5.0000e-01|  5.0000e-01|  5.0000e-01|   -4.979635|   -5.053531|   -5.696991|   -5.497634|   -5.265536|   -7.616625|    2.382246|
|        6156|  7.3963e+00|  5.6064e-09|  7.7122e-01|  5.0000e-01|  5.0000e-01|  5.0000e-01|   -4.978966|   -5.052774|   -5.696729|   -5.497469|   -5.264977|   -7.616787|    2.382372|
|        6157|  7.3962e+00|  5.6063e-09|  7.7122e-01|  5.0000e-01|  5.0000e-01|  5.0000e-01|   -4.978293|   -5.052014|   -5.696467|   -5.497299|   -5.264415|   -7.616950|    2.382497|
|        6158|  7.3962e+00|  5.6062e-09|  7.7122e-01|  5.0000e-01|  5.0000e-01|  5.0000e-01|   -4.977618|   -5.051250|   -5.696203|   -5.497122|   -5.263847|   -7.617112|    2.382621|
|        6159|  7.3961e+00|  5.6061e-09|  7.7122e-01|  5.0000e-01|  5.0000e-01|  5.0000e-01|   -4.976938|   -5.050482|   -5.695939|   -5.496939|   -5.263274|   -7.617274|    2.382744|
|        6160|  7.3961e+00|  5.6060e-09|  7.7122e-01|  5.0000e-01|  5.0000e-01|  5.0000e-01|   -4.976256|   -5.049711|   -5.695674|   -5.496751|   -5.262697|   -7.617436|    2.382865|
|        6161|  7.3961e+00|  5.6059e-09|  7.7122e-01|  5.0000e-01|  5.0000e-01|  5.0000e-01|   -4.975571|   -5.048937|   -5.695409|   -5.496557|   -5.262116|   -7.617597|    2.382986|
|        6162|  7.3960e+00|  5.6058e-09|  7.7122e-01|  5.0000e-01|  5.0000e-01|  5.0000e-01|   -4.974884|   -5.048160|   -5.695144|   -5.496358|   -5.261532|   -7.617758|    2.383105|
|        6163|  7.3960e+00|  5.6057e-09|  7.7122e-01|  5.0000e-01|  5.0000e-01|  5.0000e-01|   -4.974195|   -5.047381|   -5.694878|   -5.496153|   -5.260944|   -7.617919|    2.383223|
|        6164|  7.3959e+00|  5.6056e-09|  7.7122e-01|  5.0000e-01|  5.0000e-01|  5.0000e-01|   -4.973504|   -5.046600|   -5.694612|   -5.495943|   -5.260353|   -7.618080|    2.383339|
|        6165|  7.3959e+00|  5.6055e-09|  7.7122e-01|  5.0000e-01|  5.0000e-01|  5.0000e-01|   -4.972810|   -5.045815|   -5.694345|   -5.495727|   -5.259758|   -7.618240|    2.383455|
|        6166|  7.3959e+00|  5.6054e-09|  7.7122e-01|  5.0000e-01|  5.0000e-01|  5.0000e-01|   -4.972114|   -5.045028|   -5.694077|   -5.495505|   -5.259159|   -7.618400|    2.383569|
|        6167|  7.3959e+00|  5.6053e-09|  7.7122e-01|  5.0000e-01|  5.0000e-01|  5.0000e-01|   -4.971415|   -5.044238|   -5.693808|   -5.495279|   -5.258556|   -7.618558|    2.383682|
|        6168|  7.3958e+00|  5.6052e-09|  7.7122e-01|  5.0000e-01|  5.0000e-01|  5.0000e-01|   -4.970715|   -5.043446|   -5.693539|   -5.495047|   -5.257950|   -7.618716|    2.383794|
|        6169|  7.3958e+00|  5.6051e-09|  7.7122e-01|  5.0000e-01|  5.0000e-01|  5.0000e-01|   -4.970013|   -5.042651|   -5.693270|   -5.494809|   -5.257340|   -7.618873|    2.383905|
|        6170|  7.3958e+00|  5.6050e-09|  7.7122e-01|  5.0000e-01|  5.0000e-01|  5.0000e-01|   -4.969308|   -5.041854|   -5.693001|   -5.494567|   -5.256728|   -7.619030|    2.384015|
|        6171|  7.3957e+00|  5.6049e-09|  7.7122e-01|  5.0000e-01|  5.0000e-01|  5.0000e-01|   -4.968602|   -5.041055|   -5.692731|   -5.494320|   -5.256112|   -7.619185|    2.384123|
|        6172|  7.3957e+00|  5.6048e-09|  7.7122e-01|  5.0000e-01|  5.0000e-01|  5.0000e-01|   -4.967894|   -5.040253|   -5.692461|   -5.494067|   -5.255492|   -7.619340|    2.384231|
|        6173|  7.3957e+00|  5.6047e-09|  7.7122e-01|  5.0000e-01|  5.0000e-01|  5.0000e-01|   -4.967184|   -5.039450|   -5.692189|   -5.493809|   -5.254870|   -7.619493|    2.384337|
|        6174|  7.3956e+00|  5.6046e-09|  7.7122e-01|  5.0000e-01|  5.0000e-01|  5.0000e-01|   -4.966473|   -5.038645|   -5.691918|   -5.493546|   -5.254244|   -7.619646|    2.384442|
|        6175|  7.3956e+00|  5.6045e-09|  7.7122e-01|  5.0000e-01|  5.0000e-01|  5.0000e-01|   -4.965760|   -5.037838|   -5.691647|   -5.493280|   -5.253617|   -7.619798|    2.384546|
|        6176|  7.3955e+00|  5.6044e-09|  7.7122e-01|  5.0000e-01|  5.0000e-01|  5.0000e-01|   -4.965047|   -5.037030|   -5.691376|   -5.493009|   -5.252987|   -7.619948|    2.384649|
|        6177|  7.3955e+00|  5.6043e-09|  7.7122e-01|  5.0000e-01|  5.0000e-01|  5.0000e-01|   -4.964332|   -5.036221|   -5.691104|   -5.492732|   -5.252355|   -7.620097|    2.384750|
|        6178|  7.3955e+00|  5.6042e-09|  7.7122e-01|  5.0000e-01|  5.0000e-01|  5.0000e-01|   -4.963616|   -5.035411|   -5.690832|   -5.492451|   -5.251720|   -7.620245|    2.384851|
|        6179|  7.3954e+00|  5.6041e-09|  7.7122e-01|  5.0000e-01|  5.0000e-01|  5.0000e-01|   -4.962899|   -5.034599|   -5.690560|   -5.492165|   -5.251083|   -7.620392|    2.384951|
|        6180|  7.3954e+00|  5.6040e-09|  7.7122e-01|  5.0000e-01|  5.0000e-01|  5.0000e-01|   -4.962180|   -5.033785|   -5.690288|   -5.491873|   -5.250443|   -7.620538|    2.385049|
|        6181|  7.3953e+00|  5.6039e-09|  7.7122e-01|  5.0000e-01|  5.0000e-01|  5.0000e-01|   -4.961460|   -5.032970|   -5.690015|   -5.491577|   -5.249801|   -7.620682|    2.385146|
|        6182|  7.3953e+00|  5.6038e-09|  7.7122e-01|  5.0000e-01|  5.0000e-01|  5.0000e-01|   -4.960740|   -5.032154|   -5.689743|   -5.491278|   -5.249157|   -7.620824|    2.385243|
|        6183|  7.3952e+00|  5.6037e-09|  7.7122e-01|  5.0000e-01|  5.0000e-01|  5.0000e-01|   -4.960019|   -5.031337|   -5.689471|   -5.490974|   -5.248510|   -7.620965|    2.385338|
|        6184|  7.3952e+00|  5.6036e-09|  7.7122e-01|  5.0000e-01|  5.0000e-01|  5.0000e-01|   -4.959297|   -5.030519|   -5.689199|   -5.490665|   -5.247862|   -7.621104|    2.385432|
|        6185|  7.3951e+00|  5.6035e-09|  7.7122e-01|  5.0000e-01|  5.0000e-01|  5.0000e-01|   -4.958574|   -5.029700|   -5.688927|   -5.490351|   -5.247212|   -7.621242|    2.385525|
|        6186|  7.3951e+00|  5.6034e-09|  7.7122e-01|  5.0000e-01|  5.0000e-01|  5.0000e-01|   -4.957851|   -5.028880|   -5.688655|   -5.490033|   -5.246559|   -7.621378|    2.385617|
|        6187|  7.3951e+00|  5.6032e-09|  7.7122e-01|  5.0000e-01|  5.0000e-01|  5.0000e-01|   -4.957127|   -5.028060|   -5.688383|   -5.489710|   -5.245905|   -7.621512|    2.385708|
|        6188|  7.3950e+00|  5.6031e-09|  7.7122e-01|  5.0000e-01|  5.0000e-01|  5.0000e-01|   -4.956402|   -5.027239|   -5.688111|   -5.489382|   -5.245248|   -7.621645|    2.385798|
|        6189|  7.3950e+00|  5.6030e-09|  7.7122e-01|  5.0000e-01|  5.0000e-01|  5.0000e-01|   -4.955676|   -5.026416|   -5.687838|   -5.489048|   -5.244589|   -7.621776|    2.385887|
|        6190|  7.3949e+00|  5.6029e-09|  7.7122e-01|  5.0000e-01|  5.0000e-01|  5.0000e-01|   -4.954948|   -5.025593|   -5.687563|   -5.488710|   -5.243927|   -7.621905|    2.385974|
|        6191|  7.3949e+00|  5.6028e-09|  7.7122e-01|  5.0000e-01|  5.0000e-01|  5.0000e-01|   -4.954220|   -5.024770|   -5.687289|   -5.488367|   -5.243264|   -7.622032|    2.386061|
|        6192|  7.3948e+00|  5.6027e-09|  7.7122e-01|  5.0000e-01|  5.0000e-01|  5.0000e-01|   -4.953491|   -5.023945|   -5.687015|   -5.488020|   -5.242598|   -7.622158|    2.386147|
|        6193|  7.3948e+00|  5.6026e-09|  7.7122e-01|  5.0000e-01|  5.0000e-01|  5.0000e-01|   -4.952762|   -5.023121|   -5.686742|   -5.487668|   -5.241931|   -7.622281|    2.386232|
|        6194|  7.3947e+00|  5.6025e-09|  7.7122e-01|  5.0000e-01|  5.0000e-01|  5.0000e-01|   -4.952033|   -5.022296|   -5.686469|   -5.487312|   -5.241262|   -7.622403|    2.386315|
|        6195|  7.3947e+00|  5.6024e-09|  7.7122e-01|  5.0000e-01|  5.0000e-01|  5.0000e-01|   -4.951302|   -5.021470|   -5.686197|   -5.486952|   -5.240592|   -7.622522|    2.386398|
|        6196|  7.3947e+00|  5.6023e-09|  7.7122e-01|  5.0000e-01|  5.0000e-01|  5.0000e-01|   -4.950572|   -5.020644|   -5.685925|   -5.486588|   -5.239919|   -7.622639|    2.386480|
|        6197|  7.3946e+00|  5.6022e-09|  7.7122e-01|  5.0000e-01|  5.0000e-01|  5.0000e-01|   -4.949841|   -5.019818|   -5.685654|   -5.486220|   -5.239246|   -7.622754|    2.386561|
|        6198|  7.3946e+00|  5.6020e-09|  7.7122e-01|  5.0000e-01|  5.0000e-01|  5.0000e-01|   -4.949110|   -5.018992|   -5.685383|   -5.485848|   -5.238571|   -7.622867|    2.386640|
|        6199|  7.3945e+00|  5.6019e-09|  7.7122e-01|  5.0000e-01|  5.0000e-01|  5.0000e-01|   -4.948380|   -5.018167|   -5.685112|   -5.485472|   -5.237895|   -7.622978|    2.386719|
|        6200|  7.3945e+00|  5.6018e-09|  7.7122e-01|  5.0000e-01|  5.0000e-01|  5.0000e-01|   -4.947648|   -5.017341|   -5.684841|   -5.485091|   -5.237217|   -7.623086|    2.386797|
|        6201|  7.3944e+00|  5.6017e-09|  7.7122e-01|  5.0000e-01|  5.0000e-01|  5.0000e-01|   -4.946917|   -5.016516|   -5.684570|   -5.484706|   -5.236538|   -7.623192|    2.386873|
|        6202|  7.3944e+00|  5.6016e-09|  7.7122e-01|  5.0000e-01|  5.0000e-01|  5.0000e-01|   -4.946186|   -5.015691|   -5.684299|   -5.484317|   -5.235859|   -7.623296|    2.386949|
|        6203|  7.3944e+00|  5.6015e-09|  7.7122e-01|  5.0000e-01|  5.0000e-01|  5.0000e-01|   -4.945456|   -5.014866|   -5.684029|   -5.483925|   -5.235179|   -7.623398|    2.387024|
|        6204|  7.3943e+00|  5.6014e-09|  7.7122e-01|  5.0000e-01|  5.0000e-01|  5.0000e-01|   -4.944726|   -5.014042|   -5.683759|   -5.483529|   -5.234498|   -7.623497|    2.387097|
|        6205|  7.3943e+00|  5.6013e-09|  7.7122e-01|  5.0000e-01|  5.0000e-01|  5.0000e-01|   -4.943997|   -5.013219|   -5.683491|   -5.483130|   -5.233817|   -7.623594|    2.387170|
|        6206|  7.3942e+00|  5.6011e-09|  7.7122e-01|  5.0000e-01|  5.0000e-01|  5.0000e-01|   -4.943269|   -5.012398|   -5.683224|   -5.482726|   -5.233135|   -7.623689|    2.387241|
|        6207|  7.3942e+00|  5.6010e-09|  7.7122e-01|  5.0000e-01|  5.0000e-01|  5.0000e-01|   -4.942543|   -5.011579|   -5.682957|   -5.482320|   -5.232455|   -7.623781|    2.387312|
|        6208|  7.3941e+00|  5.6009e-09|  7.7122e-01|  5.0000e-01|  5.0000e-01|  5.0000e-01|   -4.941820|   -5.010765|   -5.682692|   -5.481911|   -5.231778|   -7.623870|    2.387382|
|        6209|  7.3941e+00|  5.6008e-09|  7.7122e-01|  5.0000e-01|  5.0000e-01|  5.0000e-01|   -4.941099|   -5.009951|   -5.682428|   -5.481499|   -5.231100|   -7.623958|    2.387450|
|        6210|  7.3940e+00|  5.6007e-09|  7.7122e-01|  5.0000e-01|  5.0000e-01|  5.0000e-01|   -4.940378|   -5.009139|   -5.682166|   -5.481083|   -5.230422|   -7.624043|    2.387518|
|        6211|  7.3940e+00|  5.6006e-09|  7.7122e-01|  5.0000e-01|  5.0000e-01|  5.0000e-01|   -4.939658|   -5.008328|   -5.681904|   -5.480665|   -5.229744|   -7.624125|    2.387584|
|        6212|  7.3939e+00|  5.6005e-09|  7.7122e-01|  5.0000e-01|  5.0000e-01|  5.0000e-01|   -4.938938|   -5.007517|   -5.681643|   -5.480245|   -5.229065|   -7.624205|    2.387650|
|        6213|  7.3938e+00|  5.6003e-09|  7.7122e-01|  5.0000e-01|  5.0000e-01|  5.0000e-01|   -4.938220|   -5.006709|   -5.681383|   -5.479821|   -5.228386|   -7.624282|    2.387714|

scontrol show job 1094557
JobId=1094557 JobName=m6_aoa15
   UserId=anthonyy(3152141) GroupId=anthonyy(3152141) MCS_label=N/A
   Priority=687424 Nice=0 Account=rrg-jphickey QOS=normal
   JobState=COMPLETING Reason=TimeLimit Dependency=(null)
   Requeue=0 Restarts=0 BatchFlag=1 Reboot=0 ExitCode=0:15
   RunTime=18:00:01 TimeLimit=18:00:00 TimeMin=N/A
   SubmitTime=2026-03-02T22:40:45 EligibleTime=2026-03-02T22:40:45
   AccrueTime=2026-03-02T22:40:45
   StartTime=2026-03-02T22:41:11 EndTime=2026-03-03T16:41:12 Deadline=N/A
   SuspendTime=None SecsPreSuspend=0 LastSchedEval=2026-03-02T22:41:11 Scheduler=Backfill
   Partition=compute AllocNode:Sid=tri-login04:2278487
   ReqNodeList=(null) ExcNodeList=(null)
   NodeList=tri[1042,1182]
   BatchHost=tri1042
   NumNodes=2 NumCPUs=384 NumTasks=128 CPUs/Task=1 ReqB:S:C:T=0:0:*:*
   ReqTRES=cpu=128,mem=1534000M,node=2,billing=128
   AllocTRES=cpu=384,mem=1534000M,node=2,billing=384
   Socks/Node=* NtasksPerN:B:S:C=64:0:*:* CoreSpec=*
   MinCPUsNode=64 MinMemoryNode=0 MinTmpDiskNode=0
   Features=(null) DelayBoot=00:00:00
   OverSubscribe=NO Contiguous=0 Licenses=(null) Network=(null)
   Command=/scratch/anthonyy/reentry/orion/cases/m6_aoa15/run.sh
   WorkDir=/scratch/anthonyy/reentry/orion/cases/m6_aoa15
   Comment=/opt/slurm/bin/sbatch --export=NONE --get-user-env=L run.sh 
   StdErr=/scratch/anthonyy/reentry/orion/cases/m6_aoa15/orion_1094557.err
   StdIn=/dev/null
   StdOut=/scratch/anthonyy/reentry/orion/cases/m6_aoa15/orion_1094557.out
   TresPerTask=cpu=1
   

sacct -j 1094557
JobID           JobName    Account    Elapsed  MaxVMSize     MaxRSS  SystemCPU    UserCPU ExitCode 
------------ ---------- ---------- ---------- ---------- ---------- ---------- ---------- -------- 
1094557        m6_aoa15 rrg-jphic+   18:00:01                         10:44:28 94-12:24:+      0:0 
1094557.bat+      batch rrg-jphic+   18:00:02          0      8992K  00:00.093  00:00.384     0:15 
1094557.ext+     extern rrg-jphic+   18:00:01                         00:00:00   00:00:00      0:0 
1094557.0       SU2_CFD rrg-jphic+   18:00:01          0  10663708K   10:44:28 94-12:24:+     0:15 

