Nodes: tri[0927,0946]
Tasks: 128
NPN:   64

-------------------------------------------------------------------------
|    ___ _   _ ___                                                      |
|   / __| | | |_  )   Release 7.5.1 "Blackbird"                         |
|   \__ \ |_| |/ /                                                      |
|   |___/\___//___|   Suite (Computational Fluid Dynamics Code)         |
|                                                                       |
-------------------------------------------------------------------------
| SU2 Project Website: https://su2code.github.io                        |
|                                                                       |
| The SU2 Project is maintained by the SU2 Foundation                   |
| (http://su2foundation.org)                                            |
-------------------------------------------------------------------------
| Copyright 2012-2023, SU2 Contributors                                 |
|                                                                       |
| SU2 is free software; you can redistribute it and/or                  |
| modify it under the terms of the GNU Lesser General Public            |
| License as published by the Free Software Foundation; either          |
| version 2.1 of the License, or (at your option) any later version.    |
|                                                                       |
| SU2 is distributed in the hope that it will be useful,                |
| but WITHOUT ANY WARRANTY; without even the implied warranty of        |
| MERCHANTABILITY or FITNESS FOR A PARTICULAR PURPOSE. See the GNU      |
| Lesser General Public License for more details.                       |
|                                                                       |
| You should have received a copy of the GNU Lesser General Public      |
| License along with SU2. If not, see <http://www.gnu.org/licenses/>.   |
-------------------------------------------------------------------------

Parsing config file for zone 0

----------------- Physical Case Definition ( Zone 0 ) -------------------
Compressible RANS equations.
Turbulence model: Spalart-Allmaras-noft2
Hybrid RANS/LES: No Hybrid RANS/LES
Mach number: 6.
Angle of attack (AoA): 15 deg, and angle of sideslip (AoS): 0 deg.
Reynolds number: 6.86229e+08. Reference length 5.
Reading and writing binary SU2 native restart files.
Read flow solution from: restart_flow.dat.
Non-Dimensional simulation (V=1.0, Rho=1.0, T=1.0 at the farfield).
The reference area will be computed using y(2D) or z(3D) projection.
The semi-span will be computed using the max y(3D) value.
The reference length is 0.64607 m.
Reference origin for moment evaluation is (0.25, 0, 0).
Surface(s) where the force coefficients are evaluated: ORION_SURFACE.

Input mesh file name: fine.su2

--------------- Space Numerical Integration ( Zone 0 ) ------------------
Jameson-Schmidt-Turkel scheme (2nd order in space) for the flow inviscid terms.
JST viscous coefficients (2nd & 4th): 0.5, 0.02.
The method includes a grid stretching correction (p = 0.3).
Scalar upwind solver for the turbulence model.
First order integration in space.
Average of gradients with correction (viscous flow terms).
Average of gradients with correction (viscous turbulence terms).
Gradient for upwind reconstruction: Green-Gauss.
Gradient for viscous and source terms: Green-Gauss.

--------------- Time Numerical Integration  ( Zone 0 ) ------------------
Local time stepping (steady state simulation).
Euler implicit method for the flow equations.
FGMRES is used for solving the linear system.
Using a ILU(0) preconditioning.
Convergence criteria of the linear solver: 1e-06.
Max number of linear iterations: 100.
CFL adaptation. Factor down: 0.5, factor up: 1.1,
                lower limit: 0.05, upper limit: 0.5,
                acceptable linear residual: 0.001.
Courant-Friedrichs-Lewy number:     0.03
Euler implicit time integration for the turbulence model.

------------------ Convergence Criteria  ( Zone 0 ) ---------------------
Maximum number of solver subiterations: 999999.
Begin convergence monitoring at iteration 5.
Residual minimum value: 1e-8.
Cauchy series min. value: 1e-10.
Number of Cauchy elements: 100.
Begin windowed time average at iteration 0.

-------------------- Output Information ( Zone 0 ) ----------------------
File writing frequency: 
+------------------------------------+
|                     File| Frequency|
+------------------------------------+
|                  RESTART|       150|
|                 PARAVIEW|       150|
|         SURFACE_PARAVIEW|       150|
+------------------------------------+
Writing the convergence history file every 1 inner iterations.
Writing the screen convergence history every 1 inner iterations.
The tabular file format is CSV (.csv).
Convergence history file name: history.
Forces breakdown file name: forces_breakdown.dat.
Surface file name: surface_flow.
Volume file name: flow.
Restart file name: restart_flow.

------------- Config File Boundary Information ( Zone 0 ) ---------------
+-----------------------------------------------------------------------+
|                        Marker Type|                        Marker Name|
+-----------------------------------------------------------------------+
|                          Far-field|                           FARFIELD|
+-----------------------------------------------------------------------+
|                     Heat flux wall|                      ORION_SURFACE|
+-----------------------------------------------------------------------+

-------------------- Output Preprocessing ( Zone 0 ) --------------------

WARNING: SURFACE_PRESSURE_DROP can only be computed for at least 2 surfaces (outlet, inlet, ...)

Screen output fields: INNER_ITER, WALL_TIME, MIN_DELTA_TIME, MAX_DELTA_TIME, MIN_CFL, MAX_CFL, AVG_CFL, RMS_DENSITY, RMS_MOMENTUM-X, RMS_MOMENTUM-Y, RMS_MOMENTUM-Z, RMS_ENERGY, RMS_NU_TILDE, DRAG
History output group(s): ITER, RMS_RES
Convergence field(s): RMS_DENSITY
Warning: No (valid) fields chosen for time convergence monitoring. Time convergence monitoring inactive.
Volume output fields: MACH, PRESSURE, TEMPERATURE, DENSITY, HEAT_FLUX, Y_PLUS, COORDINATES, SOLUTION

------------------- Geometry Preprocessing ( Zone 0 ) -------------------
Three dimensional problem.
62211324 grid points before partitioning.
190879888 volume elements before partitioning.
2 surface markers.
4104 boundary elements in index 0 (Marker = FARFIELD).
1824836 boundary elements in index 1 (Marker = ORION_SURFACE).
Executing the partitioning functions.
Building the graph adjacency structure.
Calling ParMETIS... graph partitioning complete (4959327 edge cuts).
Distributing ParMETIS coloring.
Rebalancing vertices.
Rebalancing volume element connectivity.
Rebalancing markers and surface elements.
66952290 vertices including ghost points. 
197997438 interior elements including halo cells. 
103171259 tetrahedra.
94500655 prisms.
325524 pyramids.
Establishing MPI communication patterns.
Setting point connectivity.
Renumbering points (Reverse Cuthill McKee Ordering).
Recomputing point connectivity.
Setting element connectivity.
Checking the numerical grid orientation.
All volume elements are correctly orientend.
All surface elements are correctly orientend.
Identifying edges and vertices.
Setting the control volume structure.
Volume of the computational grid: 535693.
Searching for the closest normal neighbors to the surfaces.
Storing a mapping from global to local point index.
Compute the surface curvature.
Max K: 132.896. Mean K: 3.9104. Standard deviation K: 7.49569.
Checking for periodicity.
Computing mesh quality statistics for the dual control volumes.
+--------------------------------------------------------------+
|           Mesh Quality Metric|        Minimum|        Maximum|
+--------------------------------------------------------------+
|    Orthogonality Angle (deg.)|        53.0661|             90|
|     CV Face Area Aspect Ratio|        1.01143|        75298.5|
|           CV Sub-Volume Ratio|        1.00029|        45.0258|
+--------------------------------------------------------------+
Finding max control volume width.
Communicating number of neighbors.
Reference area = 11.531 m^2.
Semi-span length = 2.49999 m.
Wetted area = 57.9072 m^2.
Area projection in the x-plane = 19.6343 m^2, y-plane = 11.531 m^2, z-plane = 11.531 m^2.
Max. coordinate in the x-direction = 2.575 m, y-direction = 2.49999 m, z-direction = 2.49999 m.
Min. coordinate in the x-direction = -0.71 m, y-direction = -2.49999 m, z-direction = -2.5 m.
Computing wall distances.

-------------------- Solver Preprocessing ( Zone 0 ) --------------------
Viscous flow: Computing pressure using the ideal gas law
based on the free-stream temperature and a density computed
from the Reynolds number.
Force coefficients computed using free-stream values.

-- Models:
+------------------------------------------------------------------------------+
|          Viscosity Model|        Conductivity Model|              Fluid Model|
+------------------------------------------------------------------------------+
|               SUTHERLAND|          CONSTANT_PRANDTL|             STANDARD_AIR|
+------------------------------------------------------------------------------+
-- Fluid properties:
+------------------------------------------------------------------------------+
|                  Name|    Dim. value|    Ref. value|      Unit|Non-dim. value|
+------------------------------------------------------------------------------+
|        Ref. Viscosity|     1.716e-05|       2455.73|   N.s/m^2|   6.98773e-09|
|      Sutherland Temp.|        273.15|        288.15|         K|      0.947944|
|     Sutherland Const.|         110.4|        288.15|         K|      0.383134|
+------------------------------------------------------------------------------+
|        Prandtl (Lam.)|             -|             -|         -|          0.72|
|       Prandtl (Turb.)|             -|             -|         -|           0.9|
+------------------------------------------------------------------------------+
|          Gas Constant|       287.058|       14467.7|  N.m/kg.K|     0.0198413|
|      Spec. Heat Ratio|             -|             -|         -|           1.4|
+------------------------------------------------------------------------------+
-- Initial and free-stream conditions:
+------------------------------------------------------------------------------+
|                  Name|    Dim. value|    Ref. value|      Unit|Non-dim. value|
+------------------------------------------------------------------------------+
|       Static Pressure|       99485.6|   5.01407e+06|        Pa|     0.0198413|
|               Density|       1.20274|       1.20274|    kg/m^3|             1|
|           Temperature|        288.15|        288.15|         K|             1|
|          Total Energy|   2.29123e+06|   4.16887e+06|   m^2/s^2|      0.549603|
|            Velocity-X|       1972.21|       2041.78|       m/s|      0.965926|
|            Velocity-Y|             0|       2041.78|       m/s|             0|
|            Velocity-Z|       528.452|       2041.78|       m/s|      0.258819|
|    Velocity Magnitude|       2041.78|       2041.78|       m/s|             1|
+------------------------------------------------------------------------------+
|             Viscosity|    1.7893e-05|       2455.73|   N.s/m^2|    7.2862e-09|
|          Conductivity|             -|   3.55289e+07|   W/m^2.K|             -|
|     Turb. Kin. Energy|       15633.3|   4.16887e+06|   m^2/s^2|       0.00375|
|     Spec. Dissipation|   1.05085e+08|       2041.78|       1/s|       51467.1|
+------------------------------------------------------------------------------+
|           Mach Number|             -|             -|         -|             6|
|       Reynolds Number|             -|             -|         -|   6.86229e+08|
+------------------------------------------------------------------------------+
Initialize Jacobian structure (Navier-Stokes). MG level: 0.
Initialize Jacobian structure (SA model).

------------------- Numerics Preprocessing ( Zone 0 ) -------------------

----------------- Integration Preprocessing ( Zone 0 ) ------------------

------------------- Iteration Preprocessing ( Zone 0 ) ------------------
Euler/Navier-Stokes/RANS fluid iteration.

------------------------------ Begin Solver -----------------------------

Simulation Run using the Single-zone Driver
WARNING: SU2 was not compiled for an AVX-capable architecture. Performance could be better,
         see https://su2code.github.io/docs_v7/Build-SU2-Linux-MacOS/#compiler-optimizations
+-------------------------------------------------------------------------------------------------------------------------------------------------------------------------------------+
|  Inner_Iter|   Time(sec)|      Min DT|      Max DT|     Min CFL|     Max CFL|     Avg CFL|    rms[Rho]|   rms[RhoU]|   rms[RhoV]|   rms[RhoW]|   rms[RhoE]|     rms[nu]|          CD|
+-------------------------------------------------------------------------------------------------------------------------------------------------------------------------------------+
|           0|  9.1013e+00|  2.2070e-10|  4.6272e-02|  5.0000e-02|  5.0000e-02|  5.0000e-02|   -4.553505|   -4.638785|   -5.212087|   -4.999600|   -4.841581|   -7.501267|    2.259762|
|           1|  8.3666e+00|  3.6784e-10|  7.7120e-02|  5.5000e-02|  5.5000e-02|  5.5000e-02|   -4.553495|   -4.638765|   -5.212131|   -4.999594|   -4.841594|   -7.501163|    2.259746|
|           2|  7.9723e+00|  4.0462e-10|  8.4831e-02|  6.0500e-02|  6.0500e-02|  6.0500e-02|   -4.553475|   -4.638731|   -5.212198|   -4.999581|   -4.841611|   -7.501079|    2.259729|
|           3|  7.7776e+00|  4.4509e-10|  9.3315e-02|  6.6550e-02|  6.6550e-02|  6.6550e-02|   -4.553453|   -4.638693|   -5.212270|   -4.999565|   -4.841628|   -7.500987|    2.259710|
|           4|  7.6177e+00|  4.8959e-10|  1.0265e-01|  7.3205e-02|  7.3205e-02|  7.3205e-02|   -4.553428|   -4.638650|   -5.212347|   -4.999547|   -4.841646|   -7.500885|    2.259688|
|           5|  7.5154e+00|  5.3855e-10|  1.1291e-01|  8.0526e-02|  8.0526e-02|  8.0526e-02|   -4.553399|   -4.638603|   -5.212430|   -4.999525|   -4.841663|   -7.500772|    2.259665|
|           6|  7.4245e+00|  5.9241e-10|  1.2420e-01|  8.8578e-02|  8.8578e-02|  8.8578e-02|   -4.553366|   -4.638551|   -5.212517|   -4.999499|   -4.841681|   -7.500649|    2.259640|
|           7|  7.3826e+00|  6.5164e-10|  1.3662e-01|  9.7436e-02|  9.7436e-02|  9.7436e-02|   -4.553329|   -4.638492|   -5.212609|   -4.999468|   -4.841698|   -7.500513|    2.259612|
|           8|  7.3495e+00|  7.1681e-10|  1.5028e-01|  1.0718e-01|  1.0718e-01|  1.0718e-01|   -4.553286|   -4.638427|   -5.212706|   -4.999431|   -4.841713|   -7.500363|    2.259581|
|           9|  7.3239e+00|  7.8849e-10|  1.6531e-01|  1.1790e-01|  1.1790e-01|  1.1790e-01|   -4.553237|   -4.638354|   -5.212807|   -4.999387|   -4.841727|   -7.500198|    2.259547|
|          10|  7.3001e+00|  8.6733e-10|  1.8184e-01|  1.2969e-01|  1.2969e-01|  1.2969e-01|   -4.553181|   -4.638272|   -5.212912|   -4.999335|   -4.841737|   -7.500016|    2.259510|
|          11|  7.2701e+00|  9.5406e-10|  2.0003e-01|  1.4266e-01|  1.4266e-01|  1.4266e-01|   -4.553117|   -4.638180|   -5.213019|   -4.999273|   -4.841744|   -7.499816|    2.259469|
|          12|  7.2433e+00|  1.0495e-09|  2.2003e-01|  1.5692e-01|  1.5692e-01|  1.5692e-01|   -4.553043|   -4.638077|   -5.213129|   -4.999199|   -4.841745|   -7.499596|    2.259425|
|          13|  7.2710e+00|  1.1544e-09|  2.4203e-01|  1.7261e-01|  1.7261e-01|  1.7261e-01|   -4.552958|   -4.637961|   -5.213239|   -4.999111|   -4.841740|   -7.499354|    2.259376|
|          14|  7.2939e+00|  1.2698e-09|  2.6624e-01|  1.8987e-01|  1.8987e-01|  1.8987e-01|   -4.552859|   -4.637831|   -5.213348|   -4.999006|   -4.841725|   -7.499087|    2.259322|
|          15|  7.3244e+00|  1.3968e-09|  2.9286e-01|  2.0886e-01|  2.0886e-01|  2.0886e-01|   -4.552745|   -4.637683|   -5.213455|   -4.998882|   -4.841698|   -7.498792|    2.259263|
|          16|  7.3466e+00|  1.5365e-09|  3.2215e-01|  2.2975e-01|  2.2975e-01|  2.2975e-01|   -4.552613|   -4.637515|   -5.213556|   -4.998735|   -4.841657|   -7.498468|    2.259199|
|          17|  7.3673e+00|  1.6901e-09|  3.5436e-01|  2.5272e-01|  2.5272e-01|  2.5272e-01|   -4.552460|   -4.637325|   -5.213649|   -4.998561|   -4.841597|   -7.498111|    2.259129|
|          18|  7.4013e+00|  1.8591e-09|  3.8980e-01|  2.7800e-01|  2.7800e-01|  2.7800e-01|   -4.552282|   -4.637107|   -5.213729|   -4.998355|   -4.841513|   -7.497717|    2.259052|
|          19|  7.4360e+00|  2.0450e-09|  4.2878e-01|  3.0580e-01|  3.0580e-01|  3.0580e-01|   -4.552074|   -4.636858|   -5.213793|   -4.998113|   -4.841399|   -7.497284|    2.258967|
|          20|  7.4892e+00|  2.2495e-09|  4.7166e-01|  3.3637e-01|  3.3637e-01|  3.3637e-01|   -4.551830|   -4.636571|   -5.213834|   -4.997825|   -4.841248|   -7.496806|    2.258875|
|          21|  7.5316e+00|  2.4745e-09|  5.1882e-01|  3.7001e-01|  3.7001e-01|  3.7001e-01|   -4.551544|   -4.636239|   -5.213847|   -4.997485|   -4.841051|   -7.496279|    2.258775|
|          22|  7.5539e+00|  2.7219e-09|  5.7070e-01|  4.0701e-01|  4.0701e-01|  4.0701e-01|   -4.551208|   -4.635856|   -5.213822|   -4.997084|   -4.840796|   -7.495699|    2.258665|
|          23|  7.5680e+00|  2.9940e-09|  6.2777e-01|  4.4772e-01|  4.4772e-01|  4.4772e-01|   -4.550814|   -4.635411|   -5.213755|   -4.996610|   -4.840472|   -7.495059|    2.258546|
|          24|  7.6169e+00|  3.2934e-09|  6.9055e-01|  4.9249e-01|  4.9249e-01|  4.9249e-01|   -4.550349|   -4.634892|   -5.213632|   -4.996051|   -4.840061|   -7.494354|    2.258416|
|          25|  7.6584e+00|  3.6227e-09|  7.5961e-01|  5.0000e-01|  5.0000e-01|  5.0000e-01|   -4.549800|   -4.634284|   -5.213444|   -4.995391|   -4.839543|   -7.493577|    2.258274|
|          26|  7.7018e+00|  3.6780e-09|  7.7120e-01|  5.0000e-01|  5.0000e-01|  5.0000e-01|   -4.549149|   -4.633568|   -5.213178|   -4.994611|   -4.838893|   -7.492850|    2.258132|
|          27|  7.7304e+00|  3.6779e-09|  7.7120e-01|  5.0000e-01|  5.0000e-01|  5.0000e-01|   -4.548474|   -4.632823|   -5.212909|   -4.993809|   -4.838208|   -7.492133|    2.257991|
|          28|  7.7622e+00|  3.6779e-09|  7.7120e-01|  5.0000e-01|  5.0000e-01|  5.0000e-01|   -4.547791|   -4.632066|   -5.212649|   -4.993005|   -4.837509|   -7.491413|    2.257853|
|          29|  7.7927e+00|  3.6778e-09|  7.7120e-01|  5.0000e-01|  5.0000e-01|  5.0000e-01|   -4.547100|   -4.631298|   -5.212402|   -4.992199|   -4.836798|   -7.490690|    2.257716|
|          30|  7.8157e+00|  3.6778e-09|  7.7120e-01|  5.0000e-01|  5.0000e-01|  5.0000e-01|   -4.546405|   -4.630521|   -5.212168|   -4.991392|   -4.836075|   -7.489964|    2.257581|
|          31|  7.8340e+00|  3.6778e-09|  7.7120e-01|  5.0000e-01|  5.0000e-01|  5.0000e-01|   -4.545703|   -4.629735|   -5.211944|   -4.990586|   -4.835343|   -7.489236|    2.257447|
|          32|  7.8546e+00|  3.6778e-09|  7.7120e-01|  5.0000e-01|  5.0000e-01|  5.0000e-01|   -4.544996|   -4.628940|   -5.211731|   -4.989778|   -4.834601|   -7.488505|    2.257315|
|          33|  7.8839e+00|  3.6777e-09|  7.7120e-01|  5.0000e-01|  5.0000e-01|  5.0000e-01|   -4.544284|   -4.628138|   -5.211529|   -4.988971|   -4.833851|   -7.487772|    2.257185|
|          34|  7.9127e+00|  3.6777e-09|  7.7120e-01|  5.0000e-01|  5.0000e-01|  5.0000e-01|   -4.543569|   -4.627330|   -5.211336|   -4.988163|   -4.833093|   -7.487036|    2.257057|
|          35|  7.9321e+00|  3.6777e-09|  7.7120e-01|  5.0000e-01|  5.0000e-01|  5.0000e-01|   -4.542850|   -4.626516|   -5.211154|   -4.987356|   -4.832329|   -7.486299|    2.256931|
|          36|  7.9489e+00|  3.6776e-09|  7.7120e-01|  5.0000e-01|  5.0000e-01|  5.0000e-01|   -4.542129|   -4.625699|   -5.210982|   -4.986551|   -4.831561|   -7.485559|    2.256806|
|          37|  7.9681e+00|  3.6776e-09|  7.7120e-01|  5.0000e-01|  5.0000e-01|  5.0000e-01|   -4.541407|   -4.624878|   -5.210820|   -4.985749|   -4.830790|   -7.484817|    2.256683|
|          38|  7.9855e+00|  3.6776e-09|  7.7120e-01|  5.0000e-01|  5.0000e-01|  5.0000e-01|   -4.540683|   -4.624054|   -5.210666|   -4.984948|   -4.830015|   -7.484074|    2.256561|
|          39|  7.9976e+00|  3.6776e-09|  7.7120e-01|  5.0000e-01|  5.0000e-01|  5.0000e-01|   -4.539958|   -4.623227|   -5.210520|   -4.984148|   -4.829237|   -7.483329|    2.256442|
|          40|  8.0088e+00|  3.6776e-09|  7.7120e-01|  5.0000e-01|  5.0000e-01|  5.0000e-01|   -4.539233|   -4.622400|   -5.210383|   -4.983351|   -4.828459|   -7.482583|    2.256324|
|          41|  8.0240e+00|  3.6775e-09|  7.7120e-01|  5.0000e-01|  5.0000e-01|  5.0000e-01|   -4.538508|   -4.621572|   -5.210255|   -4.982557|   -4.827680|   -7.481835|    2.256208|
|          42|  8.0354e+00|  3.6775e-09|  7.7120e-01|  5.0000e-01|  5.0000e-01|  5.0000e-01|   -4.537785|   -4.620746|   -5.210134|   -4.981766|   -4.826903|   -7.481086|    2.256094|
|          43|  8.0485e+00|  3.6775e-09|  7.7120e-01|  5.0000e-01|  5.0000e-01|  5.0000e-01|   -4.537063|   -4.619921|   -5.210020|   -4.980979|   -4.826128|   -7.480334|    2.255981|
|          44|  8.0561e+00|  3.6775e-09|  7.7120e-01|  5.0000e-01|  5.0000e-01|  5.0000e-01|   -4.536344|   -4.619099|   -5.209916|   -4.980194|   -4.825356|   -7.479582|    2.255870|
|          45|  8.0671e+00|  3.6775e-09|  7.7120e-01|  5.0000e-01|  5.0000e-01|  5.0000e-01|   -4.535628|   -4.618279|   -5.209820|   -4.979414|   -4.824587|   -7.478828|    2.255761|
|          46|  8.0799e+00|  3.6775e-09|  7.7120e-01|  5.0000e-01|  5.0000e-01|  5.0000e-01|   -4.534916|   -4.617464|   -5.209731|   -4.978640|   -4.823823|   -7.478073|    2.255654|
|          47|  8.0941e+00|  3.6774e-09|  7.7120e-01|  5.0000e-01|  5.0000e-01|  5.0000e-01|   -4.534208|   -4.616653|   -5.209648|   -4.977870|   -4.823065|   -7.477318|    2.255548|
|          48|  8.1119e+00|  3.6774e-09|  7.7120e-01|  5.0000e-01|  5.0000e-01|  5.0000e-01|   -4.533504|   -4.615847|   -5.209572|   -4.977105|   -4.822312|   -7.476561|    2.255444|
|          49|  8.1238e+00|  3.6774e-09|  7.7120e-01|  5.0000e-01|  5.0000e-01|  5.0000e-01|   -4.532805|   -4.615046|   -5.209502|   -4.976345|   -4.821565|   -7.475803|    2.255342|
|          50|  8.1336e+00|  3.6774e-09|  7.7120e-01|  5.0000e-01|  5.0000e-01|  5.0000e-01|   -4.532112|   -4.614252|   -5.209439|   -4.975591|   -4.820827|   -7.475045|    2.255241|
|          51|  8.1424e+00|  3.6774e-09|  7.7120e-01|  5.0000e-01|  5.0000e-01|  5.0000e-01|   -4.531424|   -4.613464|   -5.209382|   -4.974843|   -4.820096|   -7.474286|    2.255143|
|          52|  8.1499e+00|  3.6774e-09|  7.7120e-01|  5.0000e-01|  5.0000e-01|  5.0000e-01|   -4.530743|   -4.612683|   -5.209329|   -4.974101|   -4.819372|   -7.473527|    2.255046|
|          53|  8.1541e+00|  3.6774e-09|  7.7120e-01|  5.0000e-01|  5.0000e-01|  5.0000e-01|   -4.530067|   -4.611909|   -5.209283|   -4.973364|   -4.818657|   -7.472767|    2.254950|
|          54|  8.1601e+00|  3.6774e-09|  7.7120e-01|  5.0000e-01|  5.0000e-01|  5.0000e-01|   -4.529397|   -4.611142|   -5.209241|   -4.972632|   -4.817948|   -7.472007|    2.254857|
|          55|  8.1683e+00|  3.6774e-09|  7.7120e-01|  5.0000e-01|  5.0000e-01|  5.0000e-01|   -4.528733|   -4.610382|   -5.209203|   -4.971904|   -4.817248|   -7.471247|    2.254765|
|          56|  8.1742e+00|  3.6774e-09|  7.7120e-01|  5.0000e-01|  5.0000e-01|  5.0000e-01|   -4.528076|   -4.609629|   -5.209168|   -4.971182|   -4.816556|   -7.470487|    2.254675|
|          57|  8.1777e+00|  3.6774e-09|  7.7120e-01|  5.0000e-01|  5.0000e-01|  5.0000e-01|   -4.527423|   -4.608883|   -5.209137|   -4.970464|   -4.815871|   -7.469727|    2.254586|
|          58|  8.1825e+00|  3.6774e-09|  7.7120e-01|  5.0000e-01|  5.0000e-01|  5.0000e-01|   -4.526777|   -4.608143|   -5.209109|   -4.969750|   -4.815193|   -7.468967|    2.254499|
|          59|  8.1893e+00|  3.6774e-09|  7.7120e-01|  5.0000e-01|  5.0000e-01|  5.0000e-01|   -4.526133|   -4.607406|   -5.209084|   -4.969038|   -4.814519|   -7.468208|    2.254414|
|          60|  8.1947e+00|  3.6774e-09|  7.7120e-01|  5.0000e-01|  5.0000e-01|  5.0000e-01|   -4.525496|   -4.606677|   -5.209063|   -4.968331|   -4.813853|   -7.467448|    2.254331|
|          61|  8.2031e+00|  3.6774e-09|  7.7120e-01|  5.0000e-01|  5.0000e-01|  5.0000e-01|   -4.524867|   -4.605957|   -5.209047|   -4.967631|   -4.813196|   -7.466689|    2.254250|
|          62|  8.2120e+00|  3.6774e-09|  7.7120e-01|  5.0000e-01|  5.0000e-01|  5.0000e-01|   -4.524245|   -4.605244|   -5.209036|   -4.966936|   -4.812548|   -7.465931|    2.254170|
|          63|  8.2195e+00|  3.6774e-09|  7.7120e-01|  5.0000e-01|  5.0000e-01|  5.0000e-01|   -4.523629|   -4.604539|   -5.209028|   -4.966247|   -4.811909|   -7.465173|    2.254092|
|          64|  8.2266e+00|  3.6775e-09|  7.7120e-01|  5.0000e-01|  5.0000e-01|  5.0000e-01|   -4.523021|   -4.603843|   -5.209024|   -4.965563|   -4.811278|   -7.464415|    2.254015|
|          65|  8.2338e+00|  3.6775e-09|  7.7120e-01|  5.0000e-01|  5.0000e-01|  5.0000e-01|   -4.522420|   -4.603154|   -5.209025|   -4.964886|   -4.810656|   -7.463659|    2.253941|
|          66|  8.2385e+00|  3.6775e-09|  7.7120e-01|  5.0000e-01|  5.0000e-01|  5.0000e-01|   -4.521827|   -4.602473|   -5.209030|   -4.964216|   -4.810043|   -7.462903|    2.253868|
|          67|  8.2417e+00|  3.6775e-09|  7.7120e-01|  5.0000e-01|  5.0000e-01|  5.0000e-01|   -4.521242|   -4.601800|   -5.209042|   -4.963553|   -4.809440|   -7.462148|    2.253796|
|          68|  8.2466e+00|  3.6775e-09|  7.7120e-01|  5.0000e-01|  5.0000e-01|  5.0000e-01|   -4.520664|   -4.601135|   -5.209058|   -4.962897|   -4.808844|   -7.461395|    2.253727|
|          69|  8.2533e+00|  3.6775e-09|  7.7120e-01|  5.0000e-01|  5.0000e-01|  5.0000e-01|   -4.520093|   -4.600477|   -5.209079|   -4.962246|   -4.808257|   -7.460642|    2.253659|
|          70|  8.2547e+00|  3.6775e-09|  7.7120e-01|  5.0000e-01|  5.0000e-01|  5.0000e-01|   -4.519529|   -4.599827|   -5.209104|   -4.961601|   -4.807677|   -7.459891|    2.253593|
|          71|  8.2579e+00|  3.6776e-09|  7.7120e-01|  5.0000e-01|  5.0000e-01|  5.0000e-01|   -4.518972|   -4.599183|   -5.209131|   -4.960963|   -4.807105|   -7.459140|    2.253529|
|          72|  8.2621e+00|  3.6776e-09|  7.7120e-01|  5.0000e-01|  5.0000e-01|  5.0000e-01|   -4.518421|   -4.598546|   -5.209162|   -4.960329|   -4.806539|   -7.458391|    2.253466|
|          73|  8.2684e+00|  3.6776e-09|  7.7120e-01|  5.0000e-01|  5.0000e-01|  5.0000e-01|   -4.517876|   -4.597916|   -5.209196|   -4.959700|   -4.805980|   -7.457643|    2.253405|
|          74|  8.2717e+00|  3.6776e-09|  7.7120e-01|  5.0000e-01|  5.0000e-01|  5.0000e-01|   -4.517336|   -4.597292|   -5.209233|   -4.959076|   -4.805427|   -7.456896|    2.253346|
|          75|  8.2734e+00|  3.6777e-09|  7.7120e-01|  5.0000e-01|  5.0000e-01|  5.0000e-01|   -4.516803|   -4.596674|   -5.209273|   -4.958457|   -4.804880|   -7.456151|    2.253289|
|          76|  8.2844e+00|  3.6777e-09|  7.7120e-01|  5.0000e-01|  5.0000e-01|  5.0000e-01|   -4.516275|   -4.596062|   -5.209316|   -4.957843|   -4.804340|   -7.455406|    2.253233|
|          77|  8.2914e+00|  3.6777e-09|  7.7120e-01|  5.0000e-01|  5.0000e-01|  5.0000e-01|   -4.515754|   -4.595457|   -5.209363|   -4.957234|   -4.803805|   -7.454664|    2.253179|
|          78|  8.2990e+00|  3.6777e-09|  7.7120e-01|  5.0000e-01|  5.0000e-01|  5.0000e-01|   -4.515239|   -4.594858|   -5.209413|   -4.956631|   -4.803276|   -7.453922|    2.253127|
|          79|  8.3016e+00|  3.6778e-09|  7.7120e-01|  5.0000e-01|  5.0000e-01|  5.0000e-01|   -4.514728|   -4.594264|   -5.209465|   -4.956032|   -4.802752|   -7.453183|    2.253077|
|          80|  8.3044e+00|  3.6778e-09|  7.7120e-01|  5.0000e-01|  5.0000e-01|  5.0000e-01|   -4.514224|   -4.593677|   -5.209520|   -4.955439|   -4.802234|   -7.452445|    2.253028|
|          81|  8.3089e+00|  3.6778e-09|  7.7120e-01|  5.0000e-01|  5.0000e-01|  5.0000e-01|   -4.513725|   -4.593095|   -5.209579|   -4.954851|   -4.801722|   -7.451709|    2.252981|
|          82|  8.3124e+00|  3.6779e-09|  7.7120e-01|  5.0000e-01|  5.0000e-01|  5.0000e-01|   -4.513228|   -4.592514|   -5.209639|   -4.954264|   -4.801210|   -7.450975|    2.252935|
|          83|  8.3158e+00|  3.6779e-09|  7.7120e-01|  5.0000e-01|  5.0000e-01|  5.0000e-01|   -4.512734|   -4.591937|   -5.209699|   -4.953678|   -4.800700|   -7.450243|    2.252892|
|          84|  8.3186e+00|  3.6779e-09|  7.7120e-01|  5.0000e-01|  5.0000e-01|  5.0000e-01|   -4.512246|   -4.591366|   -5.209765|   -4.953097|   -4.800197|   -7.449513|    2.252850|
|          85|  8.3217e+00|  3.6780e-09|  7.7120e-01|  5.0000e-01|  5.0000e-01|  5.0000e-01|   -4.511763|   -4.590801|   -5.209834|   -4.952521|   -4.799698|   -7.448786|    2.252810|
|          86|  8.3260e+00|  3.6780e-09|  7.7120e-01|  5.0000e-01|  5.0000e-01|  5.0000e-01|   -4.511286|   -4.590241|   -5.209907|   -4.951951|   -4.799205|   -7.448060|    2.252771|
|          87|  8.3299e+00|  3.6781e-09|  7.7120e-01|  5.0000e-01|  5.0000e-01|  5.0000e-01|   -4.510815|   -4.589687|   -5.209985|   -4.951386|   -4.798717|   -7.447336|    2.252735|
|          88|  8.3322e+00|  3.6781e-09|  7.7120e-01|  5.0000e-01|  5.0000e-01|  5.0000e-01|   -4.510349|   -4.589139|   -5.210067|   -4.950826|   -4.798234|   -7.446615|    2.252700|
|          89|  8.3354e+00|  3.6781e-09|  7.7120e-01|  5.0000e-01|  5.0000e-01|  5.0000e-01|   -4.509889|   -4.588597|   -5.210151|   -4.950271|   -4.797756|   -7.445896|    2.252667|
|          90|  8.3428e+00|  3.6782e-09|  7.7120e-01|  5.0000e-01|  5.0000e-01|  5.0000e-01|   -4.509427|   -4.588053|   -5.210234|   -4.949714|   -4.797275|   -7.445178|    2.252635|
|          91|  8.3463e+00|  3.6782e-09|  7.7120e-01|  5.0000e-01|  5.0000e-01|  5.0000e-01|   -4.508966|   -4.587510|   -5.210315|   -4.949156|   -4.796794|   -7.444464|    2.252606|
|          92|  8.3490e+00|  3.6783e-09|  7.7120e-01|  5.0000e-01|  5.0000e-01|  5.0000e-01|   -4.508509|   -4.586971|   -5.210400|   -4.948603|   -4.796315|   -7.443751|    2.252578|
|          93|  8.3506e+00|  3.6783e-09|  7.7120e-01|  5.0000e-01|  5.0000e-01|  5.0000e-01|   -4.508057|   -4.586437|   -5.210489|   -4.948054|   -4.795841|   -7.443040|    2.252551|
|          94|  8.3527e+00|  3.6784e-09|  7.7120e-01|  5.0000e-01|  5.0000e-01|  5.0000e-01|   -4.507610|   -4.585909|   -5.210582|   -4.947510|   -4.795372|   -7.442332|    2.252527|
|          95|  8.3562e+00|  3.6784e-09|  7.7120e-01|  5.0000e-01|  5.0000e-01|  5.0000e-01|   -4.507167|   -4.585385|   -5.210678|   -4.946971|   -4.794908|   -7.441626|    2.252504|
|          96|  8.3583e+00|  3.6785e-09|  7.7120e-01|  5.0000e-01|  5.0000e-01|  5.0000e-01|   -4.506729|   -4.584866|   -5.210777|   -4.946436|   -4.794446|   -7.440922|    2.252483|
|          97|  8.3582e+00|  3.6785e-09|  7.7120e-01|  5.0000e-01|  5.0000e-01|  5.0000e-01|   -4.506295|   -4.584351|   -5.210878|   -4.945904|   -4.793988|   -7.440221|    2.252464|
|          98|  8.3597e+00|  3.6786e-09|  7.7120e-01|  5.0000e-01|  5.0000e-01|  5.0000e-01|   -4.505863|   -4.583839|   -5.210982|   -4.945376|   -4.793532|   -7.439521|    2.252447|
|          99|  8.3619e+00|  3.6786e-09|  7.7120e-01|  5.0000e-01|  5.0000e-01|  5.0000e-01|   -4.505438|   -4.583333|   -5.211090|   -4.944854|   -4.793082|   -7.438824|    2.252431|
|         100|  8.3641e+00|  3.6787e-09|  7.7120e-01|  5.0000e-01|  5.0000e-01|  5.0000e-01|   -4.505018|   -4.582833|   -5.211202|   -4.944337|   -4.792637|   -7.438130|    2.252417|
|         101|  8.3651e+00|  3.6788e-09|  7.7120e-01|  5.0000e-01|  5.0000e-01|  5.0000e-01|   -4.504603|   -4.582338|   -5.211318|   -4.943824|   -4.792197|   -7.437437|    2.252405|
|         102|  8.3652e+00|  3.6788e-09|  7.7120e-01|  5.0000e-01|  5.0000e-01|  5.0000e-01|   -4.504193|   -4.581849|   -5.211436|   -4.943315|   -4.791761|   -7.436747|    2.252394|
|         103|  8.3727e+00|  3.6789e-09|  7.7120e-01|  5.0000e-01|  5.0000e-01|  5.0000e-01|   -4.503788|   -4.581364|   -5.211558|   -4.942812|   -4.791329|   -7.436059|    2.252386|
|         104|  8.3810e+00|  3.6789e-09|  7.7120e-01|  5.0000e-01|  5.0000e-01|  5.0000e-01|   -4.503387|   -4.580885|   -5.211682|   -4.942312|   -4.790901|   -7.435372|    2.252379|
|         105|  8.3837e+00|  3.6790e-09|  7.7120e-01|  5.0000e-01|  5.0000e-01|  5.0000e-01|   -4.502992|   -4.580411|   -5.211810|   -4.941817|   -4.790478|   -7.434688|    2.252374|
|         106|  8.3861e+00|  3.6791e-09|  7.7120e-01|  5.0000e-01|  5.0000e-01|  5.0000e-01|   -4.502602|   -4.579943|   -5.211941|   -4.941328|   -4.790061|   -7.434006|    2.252371|
|         107|  8.3887e+00|  3.6791e-09|  7.7120e-01|  5.0000e-01|  5.0000e-01|  5.0000e-01|   -4.502218|   -4.579481|   -5.212076|   -4.940845|   -4.789648|   -7.433326|    2.252369|
|         108|  8.3894e+00|  3.6792e-09|  7.7120e-01|  5.0000e-01|  5.0000e-01|  5.0000e-01|   -4.501839|   -4.579024|   -5.212215|   -4.940367|   -4.789241|   -7.432648|    2.252369|
|         109|  8.3903e+00|  3.6793e-09|  7.7120e-01|  5.0000e-01|  5.0000e-01|  5.0000e-01|   -4.501465|   -4.578573|   -5.212357|   -4.939893|   -4.788838|   -7.431972|    2.252371|
|         110|  8.3916e+00|  3.6793e-09|  7.7120e-01|  5.0000e-01|  5.0000e-01|  5.0000e-01|   -4.501096|   -4.578128|   -5.212501|   -4.939423|   -4.788440|   -7.431297|    2.252375|
|         111|  8.3938e+00|  3.6794e-09|  7.7120e-01|  5.0000e-01|  5.0000e-01|  5.0000e-01|   -4.500732|   -4.577688|   -5.212649|   -4.938957|   -4.788046|   -7.430625|    2.252381|
|         112|  8.3951e+00|  3.6795e-09|  7.7120e-01|  5.0000e-01|  5.0000e-01|  5.0000e-01|   -4.500373|   -4.577253|   -5.212799|   -4.938496|   -4.787656|   -7.429954|    2.252388|
|         113|  8.3981e+00|  3.6796e-09|  7.7120e-01|  5.0000e-01|  5.0000e-01|  5.0000e-01|   -4.500017|   -4.576823|   -5.212953|   -4.938039|   -4.787271|   -7.429285|    2.252398|
|         114|  8.3990e+00|  3.6796e-09|  7.7120e-01|  5.0000e-01|  5.0000e-01|  5.0000e-01|   -4.499668|   -4.576399|   -5.213111|   -4.937586|   -4.786890|   -7.428618|    2.252409|
|         115|  8.4007e+00|  3.6797e-09|  7.7120e-01|  5.0000e-01|  5.0000e-01|  5.0000e-01|   -4.499323|   -4.575980|   -5.213272|   -4.937138|   -4.786514|   -7.427953|    2.252421|
|         116|  8.4026e+00|  3.6798e-09|  7.7120e-01|  5.0000e-01|  5.0000e-01|  5.0000e-01|   -4.498983|   -4.575566|   -5.213436|   -4.936695|   -4.786142|   -7.427291|    2.252436|
|         117|  8.4073e+00|  3.6799e-09|  7.7120e-01|  5.0000e-01|  5.0000e-01|  5.0000e-01|   -4.498647|   -4.575157|   -5.213603|   -4.936255|   -4.785774|   -7.426630|    2.252452|
|         118|  8.4109e+00|  3.6799e-09|  7.7120e-01|  5.0000e-01|  5.0000e-01|  5.0000e-01|   -4.498316|   -4.574752|   -5.213772|   -4.935821|   -4.785410|   -7.425971|    2.252470|
|         119|  8.4120e+00|  3.6800e-09|  7.7120e-01|  5.0000e-01|  5.0000e-01|  5.0000e-01|   -4.497987|   -4.574350|   -5.213945|   -4.935391|   -4.785049|   -7.425313|    2.252490|
|         120|  8.4139e+00|  3.6801e-09|  7.7120e-01|  5.0000e-01|  5.0000e-01|  5.0000e-01|   -4.497663|   -4.573952|   -5.214121|   -4.934965|   -4.784691|   -7.424657|    2.252512|
|         121|  8.4149e+00|  3.6802e-09|  7.7120e-01|  5.0000e-01|  5.0000e-01|  5.0000e-01|   -4.497343|   -4.573559|   -5.214298|   -4.934544|   -4.784338|   -7.424002|    2.252536|
|         122|  8.4158e+00|  3.6803e-09|  7.7120e-01|  5.0000e-01|  5.0000e-01|  5.0000e-01|   -4.497027|   -4.573170|   -5.214477|   -4.934126|   -4.783987|   -7.423348|    2.252561|
|         123|  8.4171e+00|  3.6804e-09|  7.7120e-01|  5.0000e-01|  5.0000e-01|  5.0000e-01|   -4.496716|   -4.572786|   -5.214659|   -4.933715|   -4.783641|   -7.422696|    2.252588|
|         124|  8.4185e+00|  3.6804e-09|  7.7120e-01|  5.0000e-01|  5.0000e-01|  5.0000e-01|   -4.496410|   -4.572407|   -5.214844|   -4.933307|   -4.783300|   -7.422045|    2.252617|
|         125|  8.4208e+00|  3.6805e-09|  7.7120e-01|  5.0000e-01|  5.0000e-01|  5.0000e-01|   -4.496108|   -4.572033|   -5.215032|   -4.932906|   -4.782963|   -7.421395|    2.252648|
|         126|  8.4219e+00|  3.6806e-09|  7.7120e-01|  5.0000e-01|  5.0000e-01|  5.0000e-01|   -4.495810|   -4.571662|   -5.215222|   -4.932507|   -4.782629|   -7.420747|    2.252681|
|         127|  8.4225e+00|  3.6807e-09|  7.7120e-01|  5.0000e-01|  5.0000e-01|  5.0000e-01|   -4.495516|   -4.571297|   -5.215413|   -4.932113|   -4.782299|   -7.420100|    2.252715|
|         128|  8.4241e+00|  3.6808e-09|  7.7120e-01|  5.0000e-01|  5.0000e-01|  5.0000e-01|   -4.495226|   -4.570935|   -5.215608|   -4.931723|   -4.781973|   -7.419454|    2.252752|
|         129|  8.4261e+00|  3.6809e-09|  7.7120e-01|  5.0000e-01|  5.0000e-01|  5.0000e-01|   -4.494939|   -4.570577|   -5.215806|   -4.931334|   -4.781649|   -7.418809|    2.252790|
|         130|  8.4262e+00|  3.6810e-09|  7.7120e-01|  5.0000e-01|  5.0000e-01|  5.0000e-01|   -4.494654|   -4.570221|   -5.216008|   -4.930947|   -4.781326|   -7.418165|    2.252829|
|         131|  8.4292e+00|  3.6811e-09|  7.7120e-01|  5.0000e-01|  5.0000e-01|  5.0000e-01|   -4.494376|   -4.569870|   -5.216213|   -4.930565|   -4.781008|   -7.417522|    2.252871|
|         132|  8.4308e+00|  3.6812e-09|  7.7120e-01|  5.0000e-01|  5.0000e-01|  5.0000e-01|   -4.494101|   -4.569525|   -5.216422|   -4.930188|   -4.780695|   -7.416880|    2.252914|
|         133|  8.4319e+00|  3.6813e-09|  7.7120e-01|  5.0000e-01|  5.0000e-01|  5.0000e-01|   -4.493833|   -4.569185|   -5.216635|   -4.929817|   -4.780387|   -7.416239|    2.252960|
|         134|  8.4332e+00|  3.6814e-09|  7.7121e-01|  5.0000e-01|  5.0000e-01|  5.0000e-01|   -4.493570|   -4.568851|   -5.216854|   -4.929452|   -4.780085|   -7.415599|    2.253007|
|         135|  8.4344e+00|  3.6815e-09|  7.7121e-01|  5.0000e-01|  5.0000e-01|  5.0000e-01|   -4.493311|   -4.568522|   -5.217076|   -4.929091|   -4.779787|   -7.414960|    2.253055|
|         136|  8.4353e+00|  3.6816e-09|  7.7121e-01|  5.0000e-01|  5.0000e-01|  5.0000e-01|   -4.493056|   -4.568195|   -5.217299|   -4.928733|   -4.779491|   -7.414322|    2.253106|
|         137|  8.4369e+00|  3.6817e-09|  7.7121e-01|  5.0000e-01|  5.0000e-01|  5.0000e-01|   -4.492805|   -4.567875|   -5.217525|   -4.928380|   -4.779201|   -7.413685|    2.253158|
|         138|  8.4374e+00|  3.6818e-09|  7.7121e-01|  5.0000e-01|  5.0000e-01|  5.0000e-01|   -4.492560|   -4.567560|   -5.217755|   -4.928032|   -4.778915|   -7.413048|    2.253213|
|         139|  8.4374e+00|  3.6819e-09|  7.7121e-01|  5.0000e-01|  5.0000e-01|  5.0000e-01|   -4.492320|   -4.567250|   -5.217988|   -4.927689|   -4.778634|   -7.412412|    2.253268|
|         140|  8.4413e+00|  3.6820e-09|  7.7121e-01|  5.0000e-01|  5.0000e-01|  5.0000e-01|   -4.492084|   -4.566944|   -5.218225|   -4.927352|   -4.778357|   -7.411777|    2.253326|
|         141|  8.4433e+00|  3.6821e-09|  7.7121e-01|  5.0000e-01|  5.0000e-01|  5.0000e-01|   -4.491853|   -4.566643|   -5.218465|   -4.927020|   -4.778085|   -7.411142|    2.253386|
|         142|  8.4452e+00|  3.6822e-09|  7.7121e-01|  5.0000e-01|  5.0000e-01|  5.0000e-01|   -4.491626|   -4.566346|   -5.218707|   -4.926692|   -4.777816|   -7.410507|    2.253447|
|         143|  8.4450e+00|  3.6823e-09|  7.7121e-01|  5.0000e-01|  5.0000e-01|  5.0000e-01|   -4.491403|   -4.566053|   -5.218952|   -4.926369|   -4.777551|   -7.409873|    2.253510|
|         144|  8.4456e+00|  3.6824e-09|  7.7121e-01|  5.0000e-01|  5.0000e-01|  5.0000e-01|   -4.491184|   -4.565764|   -5.219198|   -4.926049|   -4.777290|   -7.409240|    2.253574|
|         145|  8.4466e+00|  3.6825e-09|  7.7121e-01|  5.0000e-01|  5.0000e-01|  5.0000e-01|   -4.490968|   -4.565479|   -5.219445|   -4.925734|   -4.777032|   -7.408606|    2.253641|
|         146|  8.4475e+00|  3.6826e-09|  7.7121e-01|  5.0000e-01|  5.0000e-01|  5.0000e-01|   -4.490756|   -4.565197|   -5.219694|   -4.925422|   -4.776776|   -7.407973|    2.253709|
|         147|  8.4486e+00|  3.6827e-09|  7.7121e-01|  5.0000e-01|  5.0000e-01|  5.0000e-01|   -4.490548|   -4.564920|   -5.219945|   -4.925114|   -4.776524|   -7.407340|    2.253779|
|         148|  8.4495e+00|  3.6829e-09|  7.7121e-01|  5.0000e-01|  5.0000e-01|  5.0000e-01|   -4.490344|   -4.564646|   -5.220199|   -4.924811|   -4.776276|   -7.406707|    2.253851|
|         149|  8.4499e+00|  3.6830e-09|  7.7121e-01|  5.0000e-01|  5.0000e-01|  5.0000e-01|   -4.490144|   -4.564377|   -5.220455|   -4.924513|   -4.776031|   -7.406073|    2.253924|
|         150|  8.4505e+00|  3.6831e-09|  7.7121e-01|  5.0000e-01|  5.0000e-01|  5.0000e-01|   -4.489947|   -4.564111|   -5.220713|   -4.924219|   -4.775790|   -7.405440|    2.253999|
+-----------------------------------------------------------------------+
|        File Writing Summary       |              Filename             |
+-----------------------------------------------------------------------+
|SU2 binary restart                 |restart_flow.dat                   |
|Paraview                           |flow.vtu                           |
|Paraview surface                   |surface_flow.vtu                   |
+-----------------------------------------------------------------------+
+-------------------------------------------------------------------------------------------------------------------------------------------------------------------------------------+
|  Inner_Iter|   Time(sec)|      Min DT|      Max DT|     Min CFL|     Max CFL|     Avg CFL|    rms[Rho]|   rms[RhoU]|   rms[RhoV]|   rms[RhoW]|   rms[RhoE]|     rms[nu]|          CD|
+-------------------------------------------------------------------------------------------------------------------------------------------------------------------------------------+
|         151|  8.5996e+00|  3.6832e-09|  7.7121e-01|  5.0000e-01|  5.0000e-01|  5.0000e-01|   -4.489755|   -4.563849|   -5.220973|   -4.923930|   -4.775552|   -7.404807|    2.254076|
|         152|  8.6004e+00|  3.6833e-09|  7.7121e-01|  5.0000e-01|  5.0000e-01|  5.0000e-01|   -4.489564|   -4.563589|   -5.221236|   -4.923642|   -4.775314|   -7.404174|    2.254154|
|         153|  8.6009e+00|  3.6835e-09|  7.7121e-01|  5.0000e-01|  5.0000e-01|  5.0000e-01|   -4.489377|   -4.563332|   -5.221501|   -4.923360|   -4.775081|   -7.403540|    2.254235|
|         154|  8.5997e+00|  3.6836e-09|  7.7121e-01|  5.0000e-01|  5.0000e-01|  5.0000e-01|   -4.489195|   -4.563081|   -5.221769|   -4.923082|   -4.774852|   -7.402906|    2.254316|
|         155|  8.5997e+00|  3.6837e-09|  7.7121e-01|  5.0000e-01|  5.0000e-01|  5.0000e-01|   -4.489017|   -4.562833|   -5.222038|   -4.922808|   -4.774626|   -7.402272|    2.254400|
|         156|  8.6001e+00|  3.6838e-09|  7.7121e-01|  5.0000e-01|  5.0000e-01|  5.0000e-01|   -4.488843|   -4.562590|   -5.222310|   -4.922538|   -4.774404|   -7.401638|    2.254485|
|         157|  8.5993e+00|  3.6839e-09|  7.7121e-01|  5.0000e-01|  5.0000e-01|  5.0000e-01|   -4.488673|   -4.562352|   -5.222583|   -4.922272|   -4.774186|   -7.401003|    2.254572|
|         158|  8.5989e+00|  3.6841e-09|  7.7121e-01|  5.0000e-01|  5.0000e-01|  5.0000e-01|   -4.488507|   -4.562118|   -5.222859|   -4.922010|   -4.773972|   -7.400367|    2.254660|
|         159|  8.5969e+00|  3.6842e-09|  7.7121e-01|  5.0000e-01|  5.0000e-01|  5.0000e-01|   -4.488346|   -4.561888|   -5.223137|   -4.921753|   -4.773761|   -7.399731|    2.254751|
|         160|  8.5950e+00|  3.6843e-09|  7.7121e-01|  5.0000e-01|  5.0000e-01|  5.0000e-01|   -4.488187|   -4.561660|   -5.223419|   -4.921499|   -4.773552|   -7.399094|    2.254842|
|         161|  8.5945e+00|  3.6845e-09|  7.7121e-01|  5.0000e-01|  5.0000e-01|  5.0000e-01|   -4.488031|   -4.561436|   -5.223703|   -4.921249|   -4.773346|   -7.398457|    2.254936|
|         162|  8.5949e+00|  3.6846e-09|  7.7121e-01|  5.0000e-01|  5.0000e-01|  5.0000e-01|   -4.487881|   -4.561217|   -5.223989|   -4.921003|   -4.773145|   -7.397819|    2.255031|
|         163|  8.5931e+00|  3.6847e-09|  7.7121e-01|  5.0000e-01|  5.0000e-01|  5.0000e-01|   -4.487734|   -4.561002|   -5.224279|   -4.920760|   -4.772948|   -7.397180|    2.255127|
|         164|  8.5914e+00|  3.6848e-09|  7.7121e-01|  5.0000e-01|  5.0000e-01|  5.0000e-01|   -4.487591|   -4.560792|   -5.224570|   -4.920521|   -4.772753|   -7.396541|    2.255225|
|         165|  8.5896e+00|  3.6850e-09|  7.7121e-01|  5.0000e-01|  5.0000e-01|  5.0000e-01|   -4.487453|   -4.560585|   -5.224863|   -4.920286|   -4.772563|   -7.395900|    2.255325|
|         166|  8.5888e+00|  3.6851e-09|  7.7121e-01|  5.0000e-01|  5.0000e-01|  5.0000e-01|   -4.487318|   -4.560383|   -5.225159|   -4.920054|   -4.772375|   -7.395259|    2.255426|
|         167|  8.5870e+00|  3.6853e-09|  7.7121e-01|  5.0000e-01|  5.0000e-01|  5.0000e-01|   -4.487185|   -4.560183|   -5.225455|   -4.919823|   -4.772189|   -7.394616|    2.255529|
|         168|  8.5849e+00|  3.6854e-09|  7.7121e-01|  5.0000e-01|  5.0000e-01|  5.0000e-01|   -4.487056|   -4.559987|   -5.225753|   -4.919594|   -4.772006|   -7.393972|    2.255633|
|         169|  8.5835e+00|  3.6855e-09|  7.7121e-01|  5.0000e-01|  5.0000e-01|  5.0000e-01|   -4.486931|   -4.559795|   -5.226053|   -4.919370|   -4.771827|   -7.393328|    2.255739|
|         170|  8.5833e+00|  3.6857e-09|  7.7121e-01|  5.0000e-01|  5.0000e-01|  5.0000e-01|   -4.486811|   -4.559608|   -5.226357|   -4.919150|   -4.771652|   -7.392682|    2.255847|
|         171|  8.5820e+00|  3.6858e-09|  7.7121e-01|  5.0000e-01|  5.0000e-01|  5.0000e-01|   -4.486691|   -4.559421|   -5.226664|   -4.918932|   -4.771478|   -7.392035|    2.255956|
|         172|  8.5807e+00|  3.6859e-09|  7.7121e-01|  5.0000e-01|  5.0000e-01|  5.0000e-01|   -4.486574|   -4.559237|   -5.226975|   -4.918717|   -4.771306|   -7.391387|    2.256066|
|         173|  8.5788e+00|  3.6861e-09|  7.7121e-01|  5.0000e-01|  5.0000e-01|  5.0000e-01|   -4.486462|   -4.559057|   -5.227291|   -4.918507|   -4.771138|   -7.390737|    2.256178|
|         174|  8.5774e+00|  3.6862e-09|  7.7121e-01|  5.0000e-01|  5.0000e-01|  5.0000e-01|   -4.486354|   -4.558881|   -5.227609|   -4.918300|   -4.770974|   -7.390086|    2.256291|
|         175|  8.5761e+00|  3.6864e-09|  7.7121e-01|  5.0000e-01|  5.0000e-01|  5.0000e-01|   -4.486250|   -4.558710|   -5.227931|   -4.918097|   -4.770813|   -7.389434|    2.256406|
|         176|  8.5736e+00|  3.6865e-09|  7.7121e-01|  5.0000e-01|  5.0000e-01|  5.0000e-01|   -4.486150|   -4.558542|   -5.228254|   -4.917898|   -4.770656|   -7.388781|    2.256523|
|         177|  8.5716e+00|  3.6867e-09|  7.7121e-01|  5.0000e-01|  5.0000e-01|  5.0000e-01|   -4.486054|   -4.558378|   -5.228580|   -4.917703|   -4.770502|   -7.388126|    2.256640|
|         178|  8.5702e+00|  3.6868e-09|  7.7121e-01|  5.0000e-01|  5.0000e-01|  5.0000e-01|   -4.485963|   -4.558220|   -5.228910|   -4.917513|   -4.770354|   -7.387470|    2.256759|
|         179|  8.5686e+00|  3.6870e-09|  7.7121e-01|  5.0000e-01|  5.0000e-01|  5.0000e-01|   -4.485876|   -4.558066|   -5.229242|   -4.917327|   -4.770209|   -7.386812|    2.256880|
|         180|  8.5675e+00|  3.6871e-09|  7.7121e-01|  5.0000e-01|  5.0000e-01|  5.0000e-01|   -4.485794|   -4.557916|   -5.229578|   -4.917144|   -4.770068|   -7.386153|    2.257002|
|         181|  8.5662e+00|  3.6873e-09|  7.7121e-01|  5.0000e-01|  5.0000e-01|  5.0000e-01|   -4.485715|   -4.557770|   -5.229915|   -4.916966|   -4.769930|   -7.385492|    2.257126|
|         182|  8.5643e+00|  3.6874e-09|  7.7121e-01|  5.0000e-01|  5.0000e-01|  5.0000e-01|   -4.485641|   -4.557628|   -5.230256|   -4.916792|   -4.769796|   -7.384830|    2.257250|
|         183|  8.5628e+00|  3.6876e-09|  7.7121e-01|  5.0000e-01|  5.0000e-01|  5.0000e-01|   -4.485571|   -4.557490|   -5.230601|   -4.916623|   -4.769666|   -7.384166|    2.257377|
|         184|  8.5612e+00|  3.6877e-09|  7.7121e-01|  5.0000e-01|  5.0000e-01|  5.0000e-01|   -4.485506|   -4.557357|   -5.230949|   -4.916458|   -4.769540|   -7.383501|    2.257504|
|         185|  8.5631e+00|  3.6879e-09|  7.7121e-01|  5.0000e-01|  5.0000e-01|  5.0000e-01|   -4.485444|   -4.557227|   -5.231299|   -4.916295|   -4.769416|   -7.382834|    2.257633|
|         186|  8.5643e+00|  3.6880e-09|  7.7121e-01|  5.0000e-01|  5.0000e-01|  5.0000e-01|   -4.485386|   -4.557101|   -5.231651|   -4.916138|   -4.769297|   -7.382165|    2.257764|
|         187|  8.5644e+00|  3.6882e-09|  7.7121e-01|  5.0000e-01|  5.0000e-01|  5.0000e-01|   -4.485333|   -4.556980|   -5.232006|   -4.915985|   -4.769182|   -7.381496|    2.257895|
|         188|  8.5643e+00|  3.6883e-09|  7.7121e-01|  5.0000e-01|  5.0000e-01|  5.0000e-01|   -4.485282|   -4.556861|   -5.232362|   -4.915833|   -4.769068|   -7.380824|    2.258028|
|         189|  8.5641e+00|  3.6885e-09|  7.7121e-01|  5.0000e-01|  5.0000e-01|  5.0000e-01|   -4.485232|   -4.556744|   -5.232719|   -4.915681|   -4.768956|   -7.380151|    2.258163|
|         190|  8.5630e+00|  3.6887e-09|  7.7121e-01|  5.0000e-01|  5.0000e-01|  5.0000e-01|   -4.485188|   -4.556631|   -5.233079|   -4.915535|   -4.768847|   -7.379477|    2.258298|
|         191|  8.5615e+00|  3.6888e-09|  7.7121e-01|  5.0000e-01|  5.0000e-01|  5.0000e-01|   -4.485148|   -4.556523|   -5.233442|   -4.915394|   -4.768744|   -7.378801|    2.258435|
|         192|  8.5613e+00|  3.6890e-09|  7.7121e-01|  5.0000e-01|  5.0000e-01|  5.0000e-01|   -4.485113|   -4.556419|   -5.233807|   -4.915257|   -4.768644|   -7.378124|    2.258573|
|         193|  8.5602e+00|  3.6891e-09|  7.7121e-01|  5.0000e-01|  5.0000e-01|  5.0000e-01|   -4.485083|   -4.556321|   -5.234175|   -4.915126|   -4.768550|   -7.377445|    2.258713|
|         194|  8.5592e+00|  3.6893e-09|  7.7121e-01|  5.0000e-01|  5.0000e-01|  5.0000e-01|   -4.485062|   -4.556232|   -5.234546|   -4.915004|   -4.768464|   -7.376765|    2.258854|
|         195|  8.5583e+00|  3.6895e-09|  7.7121e-01|  5.0000e-01|  5.0000e-01|  5.0000e-01|   -4.485047|   -4.556147|   -5.234921|   -4.914889|   -4.768383|   -7.376083|    2.258996|
|         196|  8.5585e+00|  3.6896e-09|  7.7121e-01|  5.0000e-01|  5.0000e-01|  5.0000e-01|   -4.485037|   -4.556068|   -5.235298|   -4.914779|   -4.768308|   -7.375400|    2.259139|
|         197|  8.5570e+00|  3.6898e-09|  7.7121e-01|  5.0000e-01|  5.0000e-01|  5.0000e-01|   -4.485031|   -4.555993|   -5.235676|   -4.914672|   -4.768235|   -7.374715|    2.259284|
|         198|  8.5559e+00|  3.6900e-09|  7.7121e-01|  5.0000e-01|  5.0000e-01|  5.0000e-01|   -4.485029|   -4.555923|   -5.236055|   -4.914569|   -4.768167|   -7.374029|    2.259430|
|         199|  8.5577e+00|  3.6901e-09|  7.7121e-01|  5.0000e-01|  5.0000e-01|  5.0000e-01|   -4.485032|   -4.555857|   -5.236437|   -4.914471|   -4.768103|   -7.373342|    2.259577|
|         200|  8.5597e+00|  3.6903e-09|  7.7121e-01|  5.0000e-01|  5.0000e-01|  5.0000e-01|   -4.485040|   -4.555797|   -5.236821|   -4.914379|   -4.768044|   -7.372654|    2.259726|
|         201|  8.5603e+00|  3.6905e-09|  7.7121e-01|  5.0000e-01|  5.0000e-01|  5.0000e-01|   -4.485053|   -4.555741|   -5.237209|   -4.914291|   -4.767989|   -7.371964|    2.259876|
|         202|  8.5592e+00|  3.6906e-09|  7.7121e-01|  5.0000e-01|  5.0000e-01|  5.0000e-01|   -4.485071|   -4.555690|   -5.237600|   -4.914208|   -4.767938|   -7.371273|    2.260026|
|         203|  8.5577e+00|  3.6908e-09|  7.7121e-01|  5.0000e-01|  5.0000e-01|  5.0000e-01|   -4.485094|   -4.555645|   -5.237994|   -4.914130|   -4.767893|   -7.370581|    2.260179|
|         204|  8.5582e+00|  3.6910e-09|  7.7121e-01|  5.0000e-01|  5.0000e-01|  5.0000e-01|   -4.485122|   -4.555604|   -5.238390|   -4.914056|   -4.767851|   -7.369888|    2.260332|
|         205|  8.5578e+00|  3.6912e-09|  7.7121e-01|  5.0000e-01|  5.0000e-01|  5.0000e-01|   -4.485153|   -4.555568|   -5.238786|   -4.913985|   -4.767813|   -7.369193|    2.260487|
|         206|  8.5572e+00|  3.6913e-09|  7.7121e-01|  5.0000e-01|  5.0000e-01|  5.0000e-01|   -4.485190|   -4.555537|   -5.239186|   -4.913920|   -4.767780|   -7.368498|    2.260642|
|         207|  8.5563e+00|  3.6915e-09|  7.7121e-01|  5.0000e-01|  5.0000e-01|  5.0000e-01|   -4.485233|   -4.555511|   -5.239588|   -4.913859|   -4.767751|   -7.367801|    2.260799|
|         208|  8.5563e+00|  3.6917e-09|  7.7121e-01|  5.0000e-01|  5.0000e-01|  5.0000e-01|   -4.485280|   -4.555491|   -5.239993|   -4.913805|   -4.767728|   -7.367103|    2.260958|
|         209|  8.5563e+00|  3.6919e-09|  7.7121e-01|  5.0000e-01|  5.0000e-01|  5.0000e-01|   -4.485329|   -4.555471|   -5.240397|   -4.913751|   -4.767704|   -7.366405|    2.261117|
|         210|  8.5576e+00|  3.6920e-09|  7.7121e-01|  5.0000e-01|  5.0000e-01|  5.0000e-01|   -4.485381|   -4.555455|   -5.240802|   -4.913701|   -4.767683|   -7.365706|    2.261278|
|         211|  8.5574e+00|  3.6922e-09|  7.7121e-01|  5.0000e-01|  5.0000e-01|  5.0000e-01|   -4.485437|   -4.555443|   -5.241211|   -4.913656|   -4.767666|   -7.365006|    2.261440|
|         212|  8.5571e+00|  3.6924e-09|  7.7121e-01|  5.0000e-01|  5.0000e-01|  5.0000e-01|   -4.485499|   -4.555436|   -5.241624|   -4.913616|   -4.767653|   -7.364305|    2.261603|
|         213|  8.5581e+00|  3.6926e-09|  7.7121e-01|  5.0000e-01|  5.0000e-01|  5.0000e-01|   -4.485566|   -4.555434|   -5.242041|   -4.913582|   -4.767646|   -7.363604|    2.261767|
|         214|  8.5576e+00|  3.6928e-09|  7.7121e-01|  5.0000e-01|  5.0000e-01|  5.0000e-01|   -4.485639|   -4.555438|   -5.242462|   -4.913553|   -4.767644|   -7.362902|    2.261932|
|         215|  8.5563e+00|  3.6929e-09|  7.7121e-01|  5.0000e-01|  5.0000e-01|  5.0000e-01|   -4.485715|   -4.555446|   -5.242884|   -4.913527|   -4.767645|   -7.362200|    2.262099|
|         216|  8.5558e+00|  3.6931e-09|  7.7121e-01|  5.0000e-01|  5.0000e-01|  5.0000e-01|   -4.485795|   -4.555459|   -5.243309|   -4.913506|   -4.767649|   -7.361498|    2.262266|
|         217|  8.5554e+00|  3.6933e-09|  7.7121e-01|  5.0000e-01|  5.0000e-01|  5.0000e-01|   -4.485880|   -4.555476|   -5.243736|   -4.913489|   -4.767658|   -7.360795|    2.262435|
|         218|  8.5550e+00|  3.6935e-09|  7.7121e-01|  5.0000e-01|  5.0000e-01|  5.0000e-01|   -4.485968|   -4.555495|   -5.244167|   -4.913474|   -4.767668|   -7.360092|    2.262605|
|         219|  8.5536e+00|  3.6937e-09|  7.7121e-01|  5.0000e-01|  5.0000e-01|  5.0000e-01|   -4.486062|   -4.555521|   -5.244601|   -4.913465|   -4.767684|   -7.359389|    2.262777|
|         220|  8.5528e+00|  3.6939e-09|  7.7121e-01|  5.0000e-01|  5.0000e-01|  5.0000e-01|   -4.486161|   -4.555554|   -5.245038|   -4.913462|   -4.767706|   -7.358686|    2.262949|
|         221|  8.5514e+00|  3.6941e-09|  7.7121e-01|  5.0000e-01|  5.0000e-01|  5.0000e-01|   -4.486266|   -4.555591|   -5.245478|   -4.913462|   -4.767732|   -7.357983|    2.263122|
|         222|  8.5513e+00|  3.6942e-09|  7.7121e-01|  5.0000e-01|  5.0000e-01|  5.0000e-01|   -4.486376|   -4.555635|   -5.245920|   -4.913468|   -4.767763|   -7.357280|    2.263297|
|         223|  8.5503e+00|  3.6944e-09|  7.7121e-01|  5.0000e-01|  5.0000e-01|  5.0000e-01|   -4.486482|   -4.555673|   -5.246356|   -4.913465|   -4.767788|   -7.356577|    2.263473|
|         224|  8.5493e+00|  3.6946e-09|  7.7121e-01|  5.0000e-01|  5.0000e-01|  5.0000e-01|   -4.486593|   -4.555717|   -5.246794|   -4.913469|   -4.767818|   -7.355874|    2.263650|
|         225|  8.5486e+00|  3.6948e-09|  7.7121e-01|  5.0000e-01|  5.0000e-01|  5.0000e-01|   -4.486712|   -4.555768|   -5.247237|   -4.913480|   -4.767854|   -7.355172|    2.263828|
|         226|  8.5479e+00|  3.6950e-09|  7.7121e-01|  5.0000e-01|  5.0000e-01|  5.0000e-01|   -4.486835|   -4.555824|   -5.247681|   -4.913496|   -4.767895|   -7.354470|    2.264007|
|         227|  8.5466e+00|  3.6952e-09|  7.7121e-01|  5.0000e-01|  5.0000e-01|  5.0000e-01|   -4.486963|   -4.555885|   -5.248128|   -4.913514|   -4.767941|   -7.353768|    2.264187|
|         228|  8.5457e+00|  3.6954e-09|  7.7121e-01|  5.0000e-01|  5.0000e-01|  5.0000e-01|   -4.487097|   -4.555953|   -5.248577|   -4.913539|   -4.767992|   -7.353068|    2.264369|
|         229|  8.5450e+00|  3.6956e-09|  7.7121e-01|  5.0000e-01|  5.0000e-01|  5.0000e-01|   -4.487239|   -4.556028|   -5.249030|   -4.913571|   -4.768051|   -7.352367|    2.264551|
|         230|  8.5432e+00|  3.6958e-09|  7.7121e-01|  5.0000e-01|  5.0000e-01|  5.0000e-01|   -4.487387|   -4.556110|   -5.249485|   -4.913611|   -4.768116|   -7.351668|    2.264735|
|         231|  8.5425e+00|  3.6960e-09|  7.7121e-01|  5.0000e-01|  5.0000e-01|  5.0000e-01|   -4.487542|   -4.556200|   -5.249943|   -4.913656|   -4.768188|   -7.350969|    2.264920|
|         232|  8.5420e+00|  3.6962e-09|  7.7121e-01|  5.0000e-01|  5.0000e-01|  5.0000e-01|   -4.487703|   -4.556296|   -5.250405|   -4.913708|   -4.768266|   -7.350271|    2.265106|
|         233|  8.5408e+00|  3.6964e-09|  7.7121e-01|  5.0000e-01|  5.0000e-01|  5.0000e-01|   -4.487870|   -4.556398|   -5.250868|   -4.913766|   -4.768349|   -7.349575|    2.265293|
|         234|  8.5405e+00|  3.6966e-09|  7.7121e-01|  5.0000e-01|  5.0000e-01|  5.0000e-01|   -4.488043|   -4.556506|   -5.251333|   -4.913828|   -4.768437|   -7.348882|    2.265481|
|         235|  8.5400e+00|  3.6968e-09|  7.7121e-01|  5.0000e-01|  5.0000e-01|  5.0000e-01|   -4.488223|   -4.556620|   -5.251800|   -4.913898|   -4.768531|   -7.348200|    2.265670|
|         236|  8.5391e+00|  3.6970e-09|  7.7121e-01|  5.0000e-01|  5.0000e-01|  5.0000e-01|   -4.488410|   -4.556743|   -5.252268|   -4.913974|   -4.768633|   -7.347520|    2.265861|
|         237|  8.5381e+00|  3.6971e-09|  7.7121e-01|  5.0000e-01|  5.0000e-01|  5.0000e-01|   -4.488605|   -4.556874|   -5.252741|   -4.914057|   -4.768743|   -7.346840|    2.266052|
|         238|  8.5374e+00|  3.6973e-09|  7.7121e-01|  5.0000e-01|  5.0000e-01|  5.0000e-01|   -4.488807|   -4.557013|   -5.253215|   -4.914147|   -4.768859|   -7.346162|    2.266245|
|         239|  8.5367e+00|  3.6975e-09|  7.7121e-01|  5.0000e-01|  5.0000e-01|  5.0000e-01|   -4.489017|   -4.557159|   -5.253691|   -4.914244|   -4.768983|   -7.345485|    2.266438|
|         240|  8.5360e+00|  3.6978e-09|  7.7121e-01|  5.0000e-01|  5.0000e-01|  5.0000e-01|   -4.489232|   -4.557311|   -5.254169|   -4.914345|   -4.769111|   -7.344809|    2.266633|
|         241|  8.5351e+00|  3.6980e-09|  7.7121e-01|  5.0000e-01|  5.0000e-01|  5.0000e-01|   -4.489454|   -4.557471|   -5.254649|   -4.914453|   -4.769247|   -7.344134|    2.266829|
|         242|  8.5346e+00|  3.6982e-09|  7.7121e-01|  5.0000e-01|  5.0000e-01|  5.0000e-01|   -4.489682|   -4.557637|   -5.255129|   -4.914565|   -4.769387|   -7.343462|    2.267026|
|         243|  8.5347e+00|  3.6984e-09|  7.7121e-01|  5.0000e-01|  5.0000e-01|  5.0000e-01|   -4.489917|   -4.557810|   -5.255611|   -4.914683|   -4.769534|   -7.342791|    2.267224|
|         244|  8.5348e+00|  3.6986e-09|  7.7121e-01|  5.0000e-01|  5.0000e-01|  5.0000e-01|   -4.490158|   -4.557990|   -5.256094|   -4.914806|   -4.769687|   -7.342122|    2.267423|
|         245|  8.5342e+00|  3.6988e-09|  7.7121e-01|  5.0000e-01|  5.0000e-01|  5.0000e-01|   -4.490406|   -4.558177|   -5.256578|   -4.914935|   -4.769846|   -7.341455|    2.267623|
|         246|  8.5347e+00|  3.6990e-09|  7.7121e-01|  5.0000e-01|  5.0000e-01|  5.0000e-01|   -4.490661|   -4.558371|   -5.257065|   -4.915071|   -4.770013|   -7.340791|    2.267824|
|         247|  8.5343e+00|  3.6992e-09|  7.7121e-01|  5.0000e-01|  5.0000e-01|  5.0000e-01|   -4.490923|   -4.558573|   -5.257553|   -4.915212|   -4.770185|   -7.340129|    2.268026|
|         248|  8.5348e+00|  3.6994e-09|  7.7121e-01|  5.0000e-01|  5.0000e-01|  5.0000e-01|   -4.491191|   -4.558780|   -5.258042|   -4.915357|   -4.770362|   -7.339469|    2.268229|
|         249|  8.5345e+00|  3.6996e-09|  7.7121e-01|  5.0000e-01|  5.0000e-01|  5.0000e-01|   -4.491464|   -4.558994|   -5.258533|   -4.915508|   -4.770545|   -7.338813|    2.268434|
|         250|  8.5348e+00|  3.6998e-09|  7.7121e-01|  5.0000e-01|  5.0000e-01|  5.0000e-01|   -4.491744|   -4.559214|   -5.259025|   -4.915663|   -4.770734|   -7.338159|    2.268639|
|         251|  8.5346e+00|  3.7000e-09|  7.7121e-01|  5.0000e-01|  5.0000e-01|  5.0000e-01|   -4.492029|   -4.559441|   -5.259518|   -4.915824|   -4.770928|   -7.337507|    2.268845|
|         252|  8.5344e+00|  3.7002e-09|  7.7121e-01|  5.0000e-01|  5.0000e-01|  5.0000e-01|   -4.492320|   -4.559674|   -5.260012|   -4.915990|   -4.771128|   -7.336859|    2.269052|
|         253|  8.5340e+00|  3.7004e-09|  7.7121e-01|  5.0000e-01|  5.0000e-01|  5.0000e-01|   -4.492618|   -4.559913|   -5.260509|   -4.916161|   -4.771334|   -7.336214|    2.269261|
|         254|  8.5339e+00|  3.7006e-09|  7.7121e-01|  5.0000e-01|  5.0000e-01|  5.0000e-01|   -4.492921|   -4.560159|   -5.261007|   -4.916336|   -4.771545|   -7.335572|    2.269470|
|         255|  8.5331e+00|  3.7008e-09|  7.7121e-01|  5.0000e-01|  5.0000e-01|  5.0000e-01|   -4.493230|   -4.560410|   -5.261505|   -4.916516|   -4.771761|   -7.334934|    2.269680|
|         256|  8.5329e+00|  3.7011e-09|  7.7121e-01|  5.0000e-01|  5.0000e-01|  5.0000e-01|   -4.493545|   -4.560667|   -5.262004|   -4.916701|   -4.771982|   -7.334300|    2.269892|
|         257|  8.5336e+00|  3.7013e-09|  7.7121e-01|  5.0000e-01|  5.0000e-01|  5.0000e-01|   -4.493864|   -4.560930|   -5.262504|   -4.916891|   -4.772209|   -7.333669|    2.270104|
|         258|  8.5339e+00|  3.7015e-09|  7.7121e-01|  5.0000e-01|  5.0000e-01|  5.0000e-01|   -4.494189|   -4.561198|   -5.263005|   -4.917083|   -4.772439|   -7.333042|    2.270317|
|         259|  8.5336e+00|  3.7017e-09|  7.7121e-01|  5.0000e-01|  5.0000e-01|  5.0000e-01|   -4.494517|   -4.561470|   -5.263505|   -4.917276|   -4.772672|   -7.332419|    2.270532|
|         260|  8.5329e+00|  3.7019e-09|  7.7122e-01|  5.0000e-01|  5.0000e-01|  5.0000e-01|   -4.494848|   -4.561746|   -5.264005|   -4.917472|   -4.772909|   -7.331800|    2.270747|
|         261|  8.5335e+00|  3.7021e-09|  7.7122e-01|  5.0000e-01|  5.0000e-01|  5.0000e-01|   -4.495185|   -4.562028|   -5.264506|   -4.917672|   -4.773150|   -7.331185|    2.270963|
|         262|  8.5332e+00|  3.7023e-09|  7.7122e-01|  5.0000e-01|  5.0000e-01|  5.0000e-01|   -4.495527|   -4.562315|   -5.265006|   -4.917876|   -4.773396|   -7.330575|    2.271180|
|         263|  8.5323e+00|  3.7025e-09|  7.7122e-01|  5.0000e-01|  5.0000e-01|  5.0000e-01|   -4.495875|   -4.562608|   -5.265508|   -4.918085|   -4.773646|   -7.329969|    2.271398|
|         264|  8.5313e+00|  3.7028e-09|  7.7122e-01|  5.0000e-01|  5.0000e-01|  5.0000e-01|   -4.496227|   -4.562906|   -5.266012|   -4.918299|   -4.773901|   -7.329369|    2.271617|
|         265|  8.5317e+00|  3.7030e-09|  7.7122e-01|  5.0000e-01|  5.0000e-01|  5.0000e-01|   -4.496585|   -4.563209|   -5.266517|   -4.918516|   -4.774161|   -7.328772|    2.271837|
|         266|  8.5316e+00|  3.7032e-09|  7.7122e-01|  5.0000e-01|  5.0000e-01|  5.0000e-01|   -4.496947|   -4.563517|   -5.267023|   -4.918738|   -4.774424|   -7.328181|    2.272058|
|         267|  8.5313e+00|  3.7034e-09|  7.7122e-01|  5.0000e-01|  5.0000e-01|  5.0000e-01|   -4.497314|   -4.563829|   -5.267530|   -4.918964|   -4.774692|   -7.327594|    2.272279|
|         268|  8.5307e+00|  3.7036e-09|  7.7122e-01|  5.0000e-01|  5.0000e-01|  5.0000e-01|   -4.497686|   -4.564147|   -5.268036|   -4.919195|   -4.774964|   -7.327013|    2.272502|
|         269|  8.5306e+00|  3.7038e-09|  7.7122e-01|  5.0000e-01|  5.0000e-01|  5.0000e-01|   -4.498063|   -4.564469|   -5.268543|   -4.919431|   -4.775240|   -7.326436|    2.272725|
|         270|  8.5317e+00|  3.7041e-09|  7.7122e-01|  5.0000e-01|  5.0000e-01|  5.0000e-01|   -4.498444|   -4.564795|   -5.269050|   -4.919669|   -4.775520|   -7.325865|    2.272950|
|         271|  8.5310e+00|  3.7043e-09|  7.7122e-01|  5.0000e-01|  5.0000e-01|  5.0000e-01|   -4.498820|   -4.565117|   -5.269550|   -4.919905|   -4.775794|   -7.325299|    2.273175|
|         272|  8.5309e+00|  3.7045e-09|  7.7122e-01|  5.0000e-01|  5.0000e-01|  5.0000e-01|   -4.499201|   -4.565443|   -5.270052|   -4.920145|   -4.776072|   -7.324739|    2.273401|
|         273|  8.5303e+00|  3.7047e-09|  7.7122e-01|  5.0000e-01|  5.0000e-01|  5.0000e-01|   -4.499586|   -4.565773|   -5.270555|   -4.920389|   -4.776353|   -7.324185|    2.273628|
|         274|  8.5304e+00|  3.7049e-09|  7.7122e-01|  5.0000e-01|  5.0000e-01|  5.0000e-01|   -4.499976|   -4.566107|   -5.271057|   -4.920638|   -4.776639|   -7.323637|    2.273856|
|         275|  8.5300e+00|  3.7052e-09|  7.7122e-01|  5.0000e-01|  5.0000e-01|  5.0000e-01|   -4.500370|   -4.566446|   -5.271561|   -4.920891|   -4.776929|   -7.323095|    2.274084|
|         276|  8.5294e+00|  3.7054e-09|  7.7122e-01|  5.0000e-01|  5.0000e-01|  5.0000e-01|   -4.500769|   -4.566789|   -5.272065|   -4.921149|   -4.777222|   -7.322559|    2.274313|
|         277|  8.5287e+00|  3.7056e-09|  7.7122e-01|  5.0000e-01|  5.0000e-01|  5.0000e-01|   -4.501171|   -4.567135|   -5.272571|   -4.921410|   -4.777518|   -7.322030|    2.274544|
|         278|  8.5286e+00|  3.7058e-09|  7.7122e-01|  5.0000e-01|  5.0000e-01|  5.0000e-01|   -4.501576|   -4.567486|   -5.273076|   -4.921674|   -4.777817|   -7.321516|    2.274775|
|         279|  8.5280e+00|  3.7060e-09|  7.7122e-01|  5.0000e-01|  5.0000e-01|  5.0000e-01|   -4.501986|   -4.567839|   -5.273584|   -4.921942|   -4.778120|   -7.321008|    2.275006|
|         280|  8.5275e+00|  3.7063e-09|  7.7122e-01|  5.0000e-01|  5.0000e-01|  5.0000e-01|   -4.502400|   -4.568197|   -5.274093|   -4.922215|   -4.778426|   -7.320506|    2.275239|
|         281|  8.5269e+00|  3.7065e-09|  7.7122e-01|  5.0000e-01|  5.0000e-01|  5.0000e-01|   -4.502817|   -4.568559|   -5.274602|   -4.922490|   -4.778735|   -7.320010|    2.275472|
|         282|  8.5261e+00|  3.7067e-09|  7.7122e-01|  5.0000e-01|  5.0000e-01|  5.0000e-01|   -4.503238|   -4.568924|   -5.275112|   -4.922769|   -4.779048|   -7.319521|    2.275706|
|         283|  8.5256e+00|  3.7069e-09|  7.7122e-01|  5.0000e-01|  5.0000e-01|  5.0000e-01|   -4.503664|   -4.569293|   -5.275623|   -4.923052|   -4.779363|   -7.319038|    2.275941|
|         284|  8.5275e+00|  3.7072e-09|  7.7122e-01|  5.0000e-01|  5.0000e-01|  5.0000e-01|   -4.504093|   -4.569665|   -5.276135|   -4.923339|   -4.779682|   -7.318562|    2.276176|
|         285|  8.5281e+00|  3.7074e-09|  7.7122e-01|  5.0000e-01|  5.0000e-01|  5.0000e-01|   -4.504526|   -4.570041|   -5.276649|   -4.923629|   -4.780004|   -7.318093|    2.276413|
|         286|  8.5281e+00|  3.7076e-09|  7.7122e-01|  5.0000e-01|  5.0000e-01|  5.0000e-01|   -4.504964|   -4.570422|   -5.277168|   -4.923926|   -4.780331|   -7.317631|    2.276650|
|         287|  8.5280e+00|  3.7078e-09|  7.7122e-01|  5.0000e-01|  5.0000e-01|  5.0000e-01|   -4.505406|   -4.570807|   -5.277688|   -4.924225|   -4.780661|   -7.317176|    2.276887|
|         288|  8.5279e+00|  3.7081e-09|  7.7122e-01|  5.0000e-01|  5.0000e-01|  5.0000e-01|   -4.505853|   -4.571197|   -5.278209|   -4.924531|   -4.780996|   -7.316728|    2.277125|
|         289|  8.5275e+00|  3.7083e-09|  7.7122e-01|  5.0000e-01|  5.0000e-01|  5.0000e-01|   -4.506307|   -4.571592|   -5.278734|   -4.924843|   -4.781336|   -7.316288|    2.277364|
|         290|  8.5269e+00|  3.7085e-09|  7.7122e-01|  5.0000e-01|  5.0000e-01|  5.0000e-01|   -4.506764|   -4.571992|   -5.279259|   -4.925159|   -4.781680|   -7.315856|    2.277604|
|         291|  8.5261e+00|  3.7087e-09|  7.7122e-01|  5.0000e-01|  5.0000e-01|  5.0000e-01|   -4.507225|   -4.572395|   -5.279786|   -4.925480|   -4.782027|   -7.315431|    2.277844|
|         292|  8.5260e+00|  3.7090e-09|  7.7122e-01|  5.0000e-01|  5.0000e-01|  5.0000e-01|   -4.507690|   -4.572801|   -5.280311|   -4.925803|   -4.782376|   -7.315015|    2.278085|
|         293|  8.5261e+00|  3.7092e-09|  7.7122e-01|  5.0000e-01|  5.0000e-01|  5.0000e-01|   -4.508158|   -4.573210|   -5.280837|   -4.926131|   -4.782729|   -7.314606|    2.278327|
|         294|  8.5254e+00|  3.7094e-09|  7.7122e-01|  5.0000e-01|  5.0000e-01|  5.0000e-01|   -4.508630|   -4.573624|   -5.281364|   -4.926462|   -4.783084|   -7.314205|    2.278569|
|         295|  8.5248e+00|  3.7096e-09|  7.7122e-01|  5.0000e-01|  5.0000e-01|  5.0000e-01|   -4.509106|   -4.574041|   -5.281893|   -4.926797|   -4.783443|   -7.313813|    2.278812|
|         296|  8.5252e+00|  3.7099e-09|  7.7122e-01|  5.0000e-01|  5.0000e-01|  5.0000e-01|   -4.509586|   -4.574462|   -5.282424|   -4.927136|   -4.783805|   -7.313429|    2.279055|
|         297|  8.5251e+00|  3.7101e-09|  7.7122e-01|  5.0000e-01|  5.0000e-01|  5.0000e-01|   -4.510071|   -4.574887|   -5.282957|   -4.927479|   -4.784171|   -7.313053|    2.279299|
|         298|  8.5254e+00|  3.7103e-09|  7.7122e-01|  5.0000e-01|  5.0000e-01|  5.0000e-01|   -4.510560|   -4.575317|   -5.283492|   -4.927826|   -4.784541|   -7.312686|    2.279544|
|         299|  8.5266e+00|  3.7106e-09|  7.7122e-01|  5.0000e-01|  5.0000e-01|  5.0000e-01|   -4.511054|   -4.575752|   -5.284028|   -4.928179|   -4.784914|   -7.312327|    2.279789|
|         300|  8.5266e+00|  3.7108e-09|  7.7122e-01|  5.0000e-01|  5.0000e-01|  5.0000e-01|   -4.511553|   -4.576191|   -5.284566|   -4.928537|   -4.785292|   -7.311977|    2.280034|
+-----------------------------------------------------------------------+
|        File Writing Summary       |              Filename             |
+-----------------------------------------------------------------------+
|SU2 binary restart                 |restart_flow.dat                   |
|Paraview                           |flow.vtu                           |
|Paraview surface                   |surface_flow.vtu                   |
+-----------------------------------------------------------------------+
+-------------------------------------------------------------------------------------------------------------------------------------------------------------------------------------+
|  Inner_Iter|   Time(sec)|      Min DT|      Max DT|     Min CFL|     Max CFL|     Avg CFL|    rms[Rho]|   rms[RhoU]|   rms[RhoV]|   rms[RhoW]|   rms[RhoE]|     rms[nu]|          CD|
+-------------------------------------------------------------------------------------------------------------------------------------------------------------------------------------+
|         301|  8.5966e+00|  3.7110e-09|  7.7122e-01|  5.0000e-01|  5.0000e-01|  5.0000e-01|   -4.512057|   -4.576635|   -5.285106|   -4.928899|   -4.785674|   -7.311636|    2.280281|
|         302|  8.5963e+00|  3.7112e-09|  7.7122e-01|  5.0000e-01|  5.0000e-01|  5.0000e-01|   -4.512566|   -4.577083|   -5.285649|   -4.929266|   -4.786060|   -7.311304|    2.280527|
|         303|  8.5951e+00|  3.7115e-09|  7.7122e-01|  5.0000e-01|  5.0000e-01|  5.0000e-01|   -4.513079|   -4.577536|   -5.286191|   -4.929637|   -4.786450|   -7.310981|    2.280775|
|         304|  8.5940e+00|  3.7117e-09|  7.7122e-01|  5.0000e-01|  5.0000e-01|  5.0000e-01|   -4.513595|   -4.577992|   -5.286732|   -4.930011|   -4.786842|   -7.310667|    2.281022|
|         305|  8.5925e+00|  3.7119e-09|  7.7122e-01|  5.0000e-01|  5.0000e-01|  5.0000e-01|   -4.514116|   -4.578453|   -5.287275|   -4.930389|   -4.787238|   -7.310362|    2.281271|
|         306|  8.5904e+00|  3.7122e-09|  7.7122e-01|  5.0000e-01|  5.0000e-01|  5.0000e-01|   -4.514642|   -4.578918|   -5.287820|   -4.930771|   -4.787638|   -7.310067|    2.281519|
|         307|  8.5887e+00|  3.7124e-09|  7.7122e-01|  5.0000e-01|  5.0000e-01|  5.0000e-01|   -4.515172|   -4.579387|   -5.288365|   -4.931157|   -4.788041|   -7.309781|    2.281768|
|         308|  8.5886e+00|  3.7126e-09|  7.7122e-01|  5.0000e-01|  5.0000e-01|  5.0000e-01|   -4.515706|   -4.579861|   -5.288910|   -4.931547|   -4.788447|   -7.309505|    2.282018|
|         309|  8.5883e+00|  3.7129e-09|  7.7122e-01|  5.0000e-01|  5.0000e-01|  5.0000e-01|   -4.516244|   -4.580338|   -5.289457|   -4.931941|   -4.788857|   -7.309239|    2.282268|
|         310|  8.5881e+00|  3.7131e-09|  7.7122e-01|  5.0000e-01|  5.0000e-01|  5.0000e-01|   -4.516787|   -4.580821|   -5.290004|   -4.932339|   -4.789271|   -7.308984|    2.282519|
|         311|  8.5876e+00|  3.7133e-09|  7.7122e-01|  5.0000e-01|  5.0000e-01|  5.0000e-01|   -4.517336|   -4.581308|   -5.290552|   -4.932742|   -4.789689|   -7.308738|    2.282770|
|         312|  8.5879e+00|  3.7135e-09|  7.7122e-01|  5.0000e-01|  5.0000e-01|  5.0000e-01|   -4.517888|   -4.581799|   -5.291101|   -4.933148|   -4.790110|   -7.308502|    2.283021|
|         313|  8.5877e+00|  3.7138e-09|  7.7122e-01|  5.0000e-01|  5.0000e-01|  5.0000e-01|   -4.518445|   -4.582295|   -5.291651|   -4.933559|   -4.790535|   -7.308276|    2.283273|
|         314|  8.5867e+00|  3.7140e-09|  7.7122e-01|  5.0000e-01|  5.0000e-01|  5.0000e-01|   -4.519008|   -4.582796|   -5.292202|   -4.933974|   -4.790964|   -7.308061|    2.283525|
|         315|  8.5853e+00|  3.7142e-09|  7.7122e-01|  5.0000e-01|  5.0000e-01|  5.0000e-01|   -4.519575|   -4.583302|   -5.292756|   -4.934393|   -4.791398|   -7.307855|    2.283778|
|         316|  8.5844e+00|  3.7145e-09|  7.7122e-01|  5.0000e-01|  5.0000e-01|  5.0000e-01|   -4.520148|   -4.583813|   -5.293310|   -4.934817|   -4.791837|   -7.307660|    2.284031|
|         317|  8.5829e+00|  3.7147e-09|  7.7122e-01|  5.0000e-01|  5.0000e-01|  5.0000e-01|   -4.520726|   -4.584329|   -5.293865|   -4.935245|   -4.792279|   -7.307475|    2.284284|
|         318|  8.5820e+00|  3.7149e-09|  7.7122e-01|  5.0000e-01|  5.0000e-01|  5.0000e-01|   -4.521309|   -4.584850|   -5.294421|   -4.935677|   -4.792725|   -7.307300|    2.284538|
|         319|  8.5811e+00|  3.7152e-09|  7.7122e-01|  5.0000e-01|  5.0000e-01|  5.0000e-01|   -4.521892|   -4.585370|   -5.294976|   -4.936108|   -4.793169|   -7.307136|    2.284792|
|         320|  8.5796e+00|  3.7154e-09|  7.7122e-01|  5.0000e-01|  5.0000e-01|  5.0000e-01|   -4.522479|   -4.585895|   -5.295532|   -4.936542|   -4.793617|   -7.306982|    2.285046|
|         321|  8.5785e+00|  3.7156e-09|  7.7122e-01|  5.0000e-01|  5.0000e-01|  5.0000e-01|   -4.523071|   -4.586425|   -5.296088|   -4.936981|   -4.794069|   -7.306839|    2.285301|
|         322|  8.5773e+00|  3.7159e-09|  7.7122e-01|  5.0000e-01|  5.0000e-01|  5.0000e-01|   -4.523668|   -4.586961|   -5.296644|   -4.937424|   -4.794526|   -7.306707|    2.285556|
|         323|  8.5764e+00|  3.7161e-09|  7.7122e-01|  5.0000e-01|  5.0000e-01|  5.0000e-01|   -4.524272|   -4.587502|   -5.297201|   -4.937871|   -4.794988|   -7.306585|    2.285812|
|         324|  8.5750e+00|  3.7163e-09|  7.7122e-01|  5.0000e-01|  5.0000e-01|  5.0000e-01|   -4.524881|   -4.588049|   -5.297760|   -4.938322|   -4.795454|   -7.306475|    2.286068|
|         325|  8.5738e+00|  3.7166e-09|  7.7122e-01|  5.0000e-01|  5.0000e-01|  5.0000e-01|   -4.525496|   -4.588602|   -5.298321|   -4.938779|   -4.795926|   -7.306375|    2.286324|
|         326|  8.5726e+00|  3.7168e-09|  7.7122e-01|  5.0000e-01|  5.0000e-01|  5.0000e-01|   -4.526118|   -4.589162|   -5.298882|   -4.939241|   -4.796404|   -7.306287|    2.286580|
|         327|  8.5714e+00|  3.7170e-09|  7.7122e-01|  5.0000e-01|  5.0000e-01|  5.0000e-01|   -4.526746|   -4.589728|   -5.299445|   -4.939707|   -4.796886|   -7.306209|    2.286836|
|         328|  8.5704e+00|  3.7172e-09|  7.7122e-01|  5.0000e-01|  5.0000e-01|  5.0000e-01|   -4.527377|   -4.590296|   -5.300023|   -4.940179|   -4.797372|   -7.306143|    2.287093|
|         329|  8.5696e+00|  3.7175e-09|  7.7122e-01|  5.0000e-01|  5.0000e-01|  5.0000e-01|   -4.528014|   -4.590870|   -5.300601|   -4.940655|   -4.797862|   -7.306088|    2.287351|
|         330|  8.5682e+00|  3.7177e-09|  7.7122e-01|  5.0000e-01|  5.0000e-01|  5.0000e-01|   -4.528657|   -4.591451|   -5.301179|   -4.941135|   -4.798358|   -7.306044|    2.287608|
|         331|  8.5667e+00|  3.7179e-09|  7.7122e-01|  5.0000e-01|  5.0000e-01|  5.0000e-01|   -4.529306|   -4.592037|   -5.301756|   -4.941620|   -4.798859|   -7.306012|    2.287866|
|         332|  8.5654e+00|  3.7182e-09|  7.7122e-01|  5.0000e-01|  5.0000e-01|  5.0000e-01|   -4.529961|   -4.592630|   -5.302333|   -4.942108|   -4.799365|   -7.305991|    2.288124|
|         333|  8.5647e+00|  3.7184e-09|  7.7122e-01|  5.0000e-01|  5.0000e-01|  5.0000e-01|   -4.530622|   -4.593229|   -5.302910|   -4.942600|   -4.799876|   -7.305981|    2.288382|
|         334|  8.5635e+00|  3.7186e-09|  7.7122e-01|  5.0000e-01|  5.0000e-01|  5.0000e-01|   -4.531289|   -4.593835|   -5.303485|   -4.943097|   -4.800392|   -7.305984|    2.288640|
|         335|  8.5618e+00|  3.7189e-09|  7.7122e-01|  5.0000e-01|  5.0000e-01|  5.0000e-01|   -4.531960|   -4.594446|   -5.304061|   -4.943595|   -4.800912|   -7.305997|    2.288899|
|         336|  8.5601e+00|  3.7191e-09|  7.7122e-01|  5.0000e-01|  5.0000e-01|  5.0000e-01|   -4.532637|   -4.595063|   -5.304635|   -4.944095|   -4.801435|   -7.306023|    2.289157|
|         337|  8.5592e+00|  3.7193e-09|  7.7122e-01|  5.0000e-01|  5.0000e-01|  5.0000e-01|   -4.533318|   -4.595685|   -5.305208|   -4.944598|   -4.801964|   -7.306060|    2.289416|
|         338|  8.5585e+00|  3.7196e-09|  7.7122e-01|  5.0000e-01|  5.0000e-01|  5.0000e-01|   -4.534004|   -4.596313|   -5.305780|   -4.945103|   -4.802495|   -7.306109|    2.289676|
|         339|  8.5590e+00|  3.7198e-09|  7.7122e-01|  5.0000e-01|  5.0000e-01|  5.0000e-01|   -4.534696|   -4.596947|   -5.306351|   -4.945612|   -4.803032|   -7.306170|    2.289935|
|         340|  8.5592e+00|  3.7200e-09|  7.7122e-01|  5.0000e-01|  5.0000e-01|  5.0000e-01|   -4.535392|   -4.597585|   -5.306920|   -4.946121|   -4.803571|   -7.306243|    2.290195|
|         341|  8.5588e+00|  3.7203e-09|  7.7122e-01|  5.0000e-01|  5.0000e-01|  5.0000e-01|   -4.536092|   -4.598229|   -5.307487|   -4.946632|   -4.804114|   -7.306328|    2.290454|
|         342|  8.5574e+00|  3.7205e-09|  7.7122e-01|  5.0000e-01|  5.0000e-01|  5.0000e-01|   -4.536798|   -4.598879|   -5.308053|   -4.947146|   -4.804663|   -7.306425|    2.290714|
|         343|  8.5566e+00|  3.7207e-09|  7.7122e-01|  5.0000e-01|  5.0000e-01|  5.0000e-01|   -4.537510|   -4.599536|   -5.308618|   -4.947665|   -4.805216|   -7.306534|    2.290974|
|         344|  8.5556e+00|  3.7210e-09|  7.7122e-01|  5.0000e-01|  5.0000e-01|  5.0000e-01|   -4.538227|   -4.600198|   -5.309182|   -4.948187|   -4.805773|   -7.306655|    2.291235|
|         345|  8.5543e+00|  3.7212e-09|  7.7122e-01|  5.0000e-01|  5.0000e-01|  5.0000e-01|   -4.538950|   -4.600867|   -5.309745|   -4.948711|   -4.806336|   -7.306787|    2.291495|
|         346|  8.5529e+00|  3.7214e-09|  7.7122e-01|  5.0000e-01|  5.0000e-01|  5.0000e-01|   -4.539678|   -4.601541|   -5.310308|   -4.949239|   -4.806903|   -7.306932|    2.291755|
|         347|  8.5525e+00|  3.7217e-09|  7.7122e-01|  5.0000e-01|  5.0000e-01|  5.0000e-01|   -4.540411|   -4.602222|   -5.310869|   -4.949770|   -4.807474|   -7.307088|    2.292016|
|         348|  8.5519e+00|  3.7219e-09|  7.7122e-01|  5.0000e-01|  5.0000e-01|  5.0000e-01|   -4.541148|   -4.602907|   -5.311427|   -4.950304|   -4.808049|   -7.307258|    2.292277|
|         349|  8.5508e+00|  3.7221e-09|  7.7122e-01|  5.0000e-01|  5.0000e-01|  5.0000e-01|   -4.541892|   -4.603599|   -5.311983|   -4.950842|   -4.808628|   -7.307439|    2.292538|
[...]
|        7811|  8.1046e+00|  3.2640e-09|  7.7120e-01|  5.0000e-01|  5.0000e-01|  5.0000e-01|   -4.889948|   -4.976831|   -5.491424|   -5.403400|   -5.158702|   -7.550860|    2.311838|
|        7812|  8.1045e+00|  3.2640e-09|  7.7120e-01|  5.0000e-01|  5.0000e-01|  5.0000e-01|   -4.890065|   -4.976893|   -5.491116|   -5.403617|   -5.158704|   -7.550839|    2.311499|
|        7813|  8.1045e+00|  3.2640e-09|  7.7120e-01|  5.0000e-01|  5.0000e-01|  5.0000e-01|   -4.890178|   -4.976951|   -5.490808|   -5.403830|   -5.158705|   -7.550821|    2.311161|
|        7814|  8.1045e+00|  3.2641e-09|  7.7120e-01|  5.0000e-01|  5.0000e-01|  5.0000e-01|   -4.890288|   -4.977006|   -5.490500|   -5.404039|   -5.158703|   -7.550805|    2.310822|
|        7815|  8.1044e+00|  3.2641e-09|  7.7120e-01|  5.0000e-01|  5.0000e-01|  5.0000e-01|   -4.890394|   -4.977058|   -5.490191|   -5.404244|   -5.158700|   -7.550790|    2.310483|
|        7816|  8.1044e+00|  3.2641e-09|  7.7120e-01|  5.0000e-01|  5.0000e-01|  5.0000e-01|   -4.890497|   -4.977106|   -5.489881|   -5.404445|   -5.158694|   -7.550778|    2.310144|
|        7817|  8.1043e+00|  3.2641e-09|  7.7120e-01|  5.0000e-01|  5.0000e-01|  5.0000e-01|   -4.890596|   -4.977152|   -5.489570|   -5.404641|   -5.158686|   -7.550774|    2.309805|
|        7818|  8.1043e+00|  3.2642e-09|  7.7120e-01|  5.0000e-01|  5.0000e-01|  5.0000e-01|   -4.890692|   -4.977194|   -5.489259|   -5.404833|   -5.158677|   -7.550772|    2.309466|
|        7819|  8.1042e+00|  3.2642e-09|  7.7120e-01|  5.0000e-01|  5.0000e-01|  5.0000e-01|   -4.890785|   -4.977234|   -5.488946|   -5.405020|   -5.158667|   -7.550771|    2.309128|
|        7820|  8.1042e+00|  3.2642e-09|  7.7120e-01|  5.0000e-01|  5.0000e-01|  5.0000e-01|   -4.890876|   -4.977270|   -5.488635|   -5.405203|   -5.158656|   -7.550773|    2.308789|
|        7821|  8.1042e+00|  3.2643e-09|  7.7120e-01|  5.0000e-01|  5.0000e-01|  5.0000e-01|   -4.890962|   -4.977303|   -5.488324|   -5.405382|   -5.158642|   -7.550776|    2.308450|
|        7822|  8.1041e+00|  3.2643e-09|  7.7120e-01|  5.0000e-01|  5.0000e-01|  5.0000e-01|   -4.891044|   -4.977330|   -5.488011|   -5.405555|   -5.158625|   -7.550781|    2.308111|
|        7823|  8.1041e+00|  3.2643e-09|  7.7120e-01|  5.0000e-01|  5.0000e-01|  5.0000e-01|   -4.891119|   -4.977352|   -5.487696|   -5.405724|   -5.158603|   -7.550788|    2.307773|
|        7824|  8.1040e+00|  3.2644e-09|  7.7120e-01|  5.0000e-01|  5.0000e-01|  5.0000e-01|   -4.891190|   -4.977369|   -5.487380|   -5.405888|   -5.158579|   -7.550796|    2.307434|
|        7825|  8.1039e+00|  3.2644e-09|  7.7120e-01|  5.0000e-01|  5.0000e-01|  5.0000e-01|   -4.891256|   -4.977381|   -5.487064|   -5.406049|   -5.158552|   -7.550807|    2.307096|
|        7826|  8.1039e+00|  3.2644e-09|  7.7120e-01|  5.0000e-01|  5.0000e-01|  5.0000e-01|   -4.891317|   -4.977389|   -5.486746|   -5.406205|   -5.158522|   -7.550820|    2.306757|
|        7827|  8.1038e+00|  3.2645e-09|  7.7120e-01|  5.0000e-01|  5.0000e-01|  5.0000e-01|   -4.891374|   -4.977392|   -5.486426|   -5.406357|   -5.158489|   -7.550834|    2.306418|
|        7828|  8.1038e+00|  3.2645e-09|  7.7120e-01|  5.0000e-01|  5.0000e-01|  5.0000e-01|   -4.891428|   -4.977391|   -5.486104|   -5.406503|   -5.158454|   -7.550850|    2.306080|
|        7829|  8.1037e+00|  3.2645e-09|  7.7120e-01|  5.0000e-01|  5.0000e-01|  5.0000e-01|   -4.891476|   -4.977387|   -5.485780|   -5.406644|   -5.158417|   -7.550868|    2.305741|
|        7830|  8.1036e+00|  3.2645e-09|  7.7120e-01|  5.0000e-01|  5.0000e-01|  5.0000e-01|   -4.891519|   -4.977378|   -5.485453|   -5.406780|   -5.158376|   -7.550889|    2.305403|
|        7831|  8.1036e+00|  3.2646e-09|  7.7120e-01|  5.0000e-01|  5.0000e-01|  5.0000e-01|   -4.891557|   -4.977365|   -5.485124|   -5.406911|   -5.158332|   -7.550911|    2.305065|
|        7832|  8.1035e+00|  3.2646e-09|  7.7120e-01|  5.0000e-01|  5.0000e-01|  5.0000e-01|   -4.891590|   -4.977347|   -5.484794|   -5.407038|   -5.158285|   -7.550935|    2.304726|
|        7833|  8.1035e+00|  3.2646e-09|  7.7120e-01|  5.0000e-01|  5.0000e-01|  5.0000e-01|   -4.891619|   -4.977325|   -5.484462|   -5.407158|   -5.158236|   -7.550961|    2.304388|
|        7834|  8.1034e+00|  3.2647e-09|  7.7120e-01|  5.0000e-01|  5.0000e-01|  5.0000e-01|   -4.891644|   -4.977299|   -5.484131|   -5.407273|   -5.158184|   -7.550988|    2.304050|
|        7835|  8.1034e+00|  3.2647e-09|  7.7120e-01|  5.0000e-01|  5.0000e-01|  5.0000e-01|   -4.891664|   -4.977267|   -5.483800|   -5.407383|   -5.158130|   -7.551018|    2.303712|
|        7836|  8.1033e+00|  3.2647e-09|  7.7120e-01|  5.0000e-01|  5.0000e-01|  5.0000e-01|   -4.891680|   -4.977231|   -5.483467|   -5.407487|   -5.158074|   -7.551050|    2.303374|
|        7837|  8.1033e+00|  3.2648e-09|  7.7120e-01|  5.0000e-01|  5.0000e-01|  5.0000e-01|   -4.891692|   -4.977191|   -5.483133|   -5.407584|   -5.158015|   -7.551084|    2.303036|
|        7838|  8.1032e+00|  3.2648e-09|  7.7120e-01|  5.0000e-01|  5.0000e-01|  5.0000e-01|   -4.891697|   -4.977145|   -5.482797|   -5.407674|   -5.157951|   -7.551119|    2.302698|
|        7839|  8.1032e+00|  3.2648e-09|  7.7120e-01|  5.0000e-01|  5.0000e-01|  5.0000e-01|   -4.891697|   -4.977094|   -5.482460|   -5.407758|   -5.157885|   -7.551157|    2.302361|
|        7840|  8.1032e+00|  3.2649e-09|  7.7120e-01|  5.0000e-01|  5.0000e-01|  5.0000e-01|   -4.891693|   -4.977038|   -5.482123|   -5.407836|   -5.157816|   -7.551196|    2.302023|
|        7841|  8.1031e+00|  3.2649e-09|  7.7120e-01|  5.0000e-01|  5.0000e-01|  5.0000e-01|   -4.891682|   -4.976977|   -5.481785|   -5.407908|   -5.157744|   -7.551237|    2.301686|
|        7842|  8.1030e+00|  3.2649e-09|  7.7120e-01|  5.0000e-01|  5.0000e-01|  5.0000e-01|   -4.891667|   -4.976911|   -5.481447|   -5.407973|   -5.157668|   -7.551280|    2.301348|
|        7843|  8.1030e+00|  3.2650e-09|  7.7120e-01|  5.0000e-01|  5.0000e-01|  5.0000e-01|   -4.891648|   -4.976840|   -5.481109|   -5.408033|   -5.157591|   -7.551325|    2.301011|
|        7844|  8.1029e+00|  3.2650e-09|  7.7120e-01|  5.0000e-01|  5.0000e-01|  5.0000e-01|   -4.891623|   -4.976764|   -5.480771|   -5.408087|   -5.157510|   -7.551371|    2.300674|
|        7845|  8.1029e+00|  3.2650e-09|  7.7120e-01|  5.0000e-01|  5.0000e-01|  5.0000e-01|   -4.891592|   -4.976682|   -5.480431|   -5.408136|   -5.157427|   -7.551420|    2.300337|
|        7846|  8.1028e+00|  3.2650e-09|  7.7120e-01|  5.0000e-01|  5.0000e-01|  5.0000e-01|   -4.891557|   -4.976595|   -5.480092|   -5.408179|   -5.157340|   -7.551470|    2.300000|
|        7847|  8.1027e+00|  3.2651e-09|  7.7120e-01|  5.0000e-01|  5.0000e-01|  5.0000e-01|   -4.891517|   -4.976503|   -5.479753|   -5.408216|   -5.157251|   -7.551522|    2.299663|
|        7848|  8.1027e+00|  3.2651e-09|  7.7120e-01|  5.0000e-01|  5.0000e-01|  5.0000e-01|   -4.891471|   -4.976404|   -5.479413|   -5.408249|   -5.157158|   -7.551576|    2.299327|
|        7849|  8.1026e+00|  3.2651e-09|  7.7120e-01|  5.0000e-01|  5.0000e-01|  5.0000e-01|   -4.891421|   -4.976301|   -5.479072|   -5.408276|   -5.157064|   -7.551632|    2.298991|
|        7850|  8.1025e+00|  3.2652e-09|  7.7120e-01|  5.0000e-01|  5.0000e-01|  5.0000e-01|   -4.891368|   -4.976193|   -5.478733|   -5.408298|   -5.156969|   -7.551689|    2.298654|
|        7851|  8.1025e+00|  3.2652e-09|  7.7120e-01|  5.0000e-01|  5.0000e-01|  5.0000e-01|   -4.891307|   -4.976078|   -5.478392|   -5.408314|   -5.156868|   -7.551748|    2.298318|
|        7852|  8.1024e+00|  3.2652e-09|  7.7120e-01|  5.0000e-01|  5.0000e-01|  5.0000e-01|   -4.891242|   -4.975959|   -5.478050|   -5.408326|   -5.156765|   -7.551809|    2.297983|
|        7853|  8.1024e+00|  3.2653e-09|  7.7120e-01|  5.0000e-01|  5.0000e-01|  5.0000e-01|   -4.891171|   -4.975833|   -5.477708|   -5.408333|   -5.156658|   -7.551872|    2.297647|
|        7854|  8.1023e+00|  3.2653e-09|  7.7120e-01|  5.0000e-01|  5.0000e-01|  5.0000e-01|   -4.891093|   -4.975701|   -5.477364|   -5.408336|   -5.156547|   -7.551936|    2.297312|
|        7855|  8.1023e+00|  3.2653e-09|  7.7120e-01|  5.0000e-01|  5.0000e-01|  5.0000e-01|   -4.891011|   -4.975564|   -5.477021|   -5.408335|   -5.156434|   -7.552002|    2.296977|
|        7856|  8.1022e+00|  3.2654e-09|  7.7120e-01|  5.0000e-01|  5.0000e-01|  5.0000e-01|   -4.890923|   -4.975422|   -5.476677|   -5.408326|   -5.156316|   -7.552070|    2.296642|
|        7857|  8.1021e+00|  3.2654e-09|  7.7120e-01|  5.0000e-01|  5.0000e-01|  5.0000e-01|   -4.890829|   -4.975273|   -5.476333|   -5.408311|   -5.156196|   -7.552140|    2.296307|
|        7858|  8.1021e+00|  3.2654e-09|  7.7120e-01|  5.0000e-01|  5.0000e-01|  5.0000e-01|   -4.890729|   -4.975119|   -5.475986|   -5.408290|   -5.156071|   -7.552211|    2.295973|
|        7859|  8.1020e+00|  3.2654e-09|  7.7120e-01|  5.0000e-01|  5.0000e-01|  5.0000e-01|   -4.890623|   -4.974959|   -5.475638|   -5.408262|   -5.155941|   -7.552285|    2.295639|
|        7860|  8.1020e+00|  3.2655e-09|  7.7120e-01|  5.0000e-01|  5.0000e-01|  5.0000e-01|   -4.890510|   -4.974793|   -5.475290|   -5.408228|   -5.155808|   -7.552359|    2.295305|
|        7861|  8.1019e+00|  3.2655e-09|  7.7120e-01|  5.0000e-01|  5.0000e-01|  5.0000e-01|   -4.890390|   -4.974620|   -5.474942|   -5.408189|   -5.155670|   -7.552436|    2.294971|
|        7862|  8.1018e+00|  3.2655e-09|  7.7120e-01|  5.0000e-01|  5.0000e-01|  5.0000e-01|   -4.890264|   -4.974440|   -5.474595|   -5.408145|   -5.155528|   -7.552514|    2.294638|
|        7863|  8.1018e+00|  3.2656e-09|  7.7120e-01|  5.0000e-01|  5.0000e-01|  5.0000e-01|   -4.890134|   -4.974257|   -5.474249|   -5.408097|   -5.155384|   -7.552594|    2.294305|
|        7864|  8.1017e+00|  3.2656e-09|  7.7120e-01|  5.0000e-01|  5.0000e-01|  5.0000e-01|   -4.889997|   -4.974067|   -5.473900|   -5.408042|   -5.155236|   -7.552676|    2.293973|
|        7865|  8.1016e+00|  3.2656e-09|  7.7120e-01|  5.0000e-01|  5.0000e-01|  5.0000e-01|   -4.889853|   -4.973869|   -5.473552|   -5.407981|   -5.155083|   -7.552760|    2.293640|
|        7866|  8.1015e+00|  3.2657e-09|  7.7120e-01|  5.0000e-01|  5.0000e-01|  5.0000e-01|   -4.889702|   -4.973665|   -5.473204|   -5.407914|   -5.154926|   -7.552845|    2.293308|
|        7867|  8.1015e+00|  3.2657e-09|  7.7120e-01|  5.0000e-01|  5.0000e-01|  5.0000e-01|   -4.889546|   -4.973454|   -5.472856|   -5.407840|   -5.154765|   -7.552932|    2.292977|
|        7868|  8.1014e+00|  3.2657e-09|  7.7120e-01|  5.0000e-01|  5.0000e-01|  5.0000e-01|   -4.889383|   -4.973237|   -5.472508|   -5.407762|   -5.154600|   -7.553021|    2.292646|
|        7869|  8.1014e+00|  3.2658e-09|  7.7120e-01|  5.0000e-01|  5.0000e-01|  5.0000e-01|   -4.889213|   -4.973013|   -5.472161|   -5.407679|   -5.154430|   -7.553111|    2.292315|
|        7870|  8.1013e+00|  3.2658e-09|  7.7120e-01|  5.0000e-01|  5.0000e-01|  5.0000e-01|   -4.889037|   -4.972783|   -5.471812|   -5.407590|   -5.154256|   -7.553203|    2.291984|
|        7871|  8.1013e+00|  3.2658e-09|  7.7120e-01|  5.0000e-01|  5.0000e-01|  5.0000e-01|   -4.888855|   -4.972547|   -5.471463|   -5.407496|   -5.154079|   -7.553297|    2.291654|
|        7872|  8.1012e+00|  3.2658e-09|  7.7120e-01|  5.0000e-01|  5.0000e-01|  5.0000e-01|   -4.888666|   -4.972304|   -5.471116|   -5.407395|   -5.153897|   -7.553392|    2.291324|
|        7873|  8.1012e+00|  3.2659e-09|  7.7120e-01|  5.0000e-01|  5.0000e-01|  5.0000e-01|   -4.888469|   -4.972054|   -5.470767|   -5.407289|   -5.153709|   -7.553490|    2.290995|
|        7874|  8.1011e+00|  3.2659e-09|  7.7120e-01|  5.0000e-01|  5.0000e-01|  5.0000e-01|   -4.888265|   -4.971797|   -5.470416|   -5.407176|   -5.153516|   -7.553589|    2.290666|
|        7875|  8.1011e+00|  3.2659e-09|  7.7120e-01|  5.0000e-01|  5.0000e-01|  5.0000e-01|   -4.888053|   -4.971532|   -5.470064|   -5.407056|   -5.153317|   -7.553689|    2.290337|
|        7876|  8.1010e+00|  3.2660e-09|  7.7120e-01|  5.0000e-01|  5.0000e-01|  5.0000e-01|   -4.887834|   -4.971259|   -5.469710|   -5.406931|   -5.153113|   -7.553791|    2.290009|
|        7877|  8.1009e+00|  3.2660e-09|  7.7120e-01|  5.0000e-01|  5.0000e-01|  5.0000e-01|   -4.887607|   -4.970979|   -5.469357|   -5.406800|   -5.152904|   -7.553895|    2.289682|
|        7878|  8.1009e+00|  3.2660e-09|  7.7120e-01|  5.0000e-01|  5.0000e-01|  5.0000e-01|   -4.887374|   -4.970693|   -5.469004|   -5.406662|   -5.152691|   -7.554001|    2.289354|
|        7879|  8.1008e+00|  3.2661e-09|  7.7120e-01|  5.0000e-01|  5.0000e-01|  5.0000e-01|   -4.887136|   -4.970400|   -5.468650|   -5.406520|   -5.152475|   -7.554108|    2.289028|
|        7880|  8.1007e+00|  3.2661e-09|  7.7120e-01|  5.0000e-01|  5.0000e-01|  5.0000e-01|   -4.886891|   -4.970101|   -5.468297|   -5.406373|   -5.152255|   -7.554216|    2.288701|
|        7881|  8.1006e+00|  3.2661e-09|  7.7120e-01|  5.0000e-01|  5.0000e-01|  5.0000e-01|   -4.886641|   -4.969795|   -5.467943|   -5.406219|   -5.152031|   -7.554327|    2.288375|
|        7882|  8.1006e+00|  3.2661e-09|  7.7120e-01|  5.0000e-01|  5.0000e-01|  5.0000e-01|   -4.886384|   -4.969483|   -5.467589|   -5.406060|   -5.151803|   -7.554439|    2.288050|
|        7883|  8.1005e+00|  3.2662e-09|  7.7120e-01|  5.0000e-01|  5.0000e-01|  5.0000e-01|   -4.886120|   -4.969164|   -5.467234|   -5.405894|   -5.151570|   -7.554552|    2.287725|
|        7884|  8.1005e+00|  3.2662e-09|  7.7120e-01|  5.0000e-01|  5.0000e-01|  5.0000e-01|   -4.885849|   -4.968838|   -5.466880|   -5.405722|   -5.151332|   -7.554667|    2.287401|
|        7885|  8.1004e+00|  3.2662e-09|  7.7120e-01|  5.0000e-01|  5.0000e-01|  5.0000e-01|   -4.885573|   -4.968505|   -5.466526|   -5.405545|   -5.151091|   -7.554784|    2.287077|
|        7886|  8.1003e+00|  3.2663e-09|  7.7120e-01|  5.0000e-01|  5.0000e-01|  5.0000e-01|   -4.885290|   -4.968167|   -5.466175|   -5.405362|   -5.150846|   -7.554902|    2.286754|
|        7887|  8.1002e+00|  3.2663e-09|  7.7120e-01|  5.0000e-01|  5.0000e-01|  5.0000e-01|   -4.885001|   -4.967821|   -5.465824|   -5.405172|   -5.150596|   -7.555021|    2.286431|
|        7888|  8.1002e+00|  3.2663e-09|  7.7120e-01|  5.0000e-01|  5.0000e-01|  5.0000e-01|   -4.884707|   -4.967471|   -5.465474|   -5.404976|   -5.150344|   -7.555143|    2.286108|
|        7889|  8.1001e+00|  3.2664e-09|  7.7120e-01|  5.0000e-01|  5.0000e-01|  5.0000e-01|   -4.884407|   -4.967114|   -5.465124|   -5.404774|   -5.150087|   -7.555266|    2.285787|
|        7890|  8.1001e+00|  3.2664e-09|  7.7120e-01|  5.0000e-01|  5.0000e-01|  5.0000e-01|   -4.884100|   -4.966749|   -5.464772|   -5.404565|   -5.149825|   -7.555390|    2.285465|
|        7891|  8.1000e+00|  3.2664e-09|  7.7120e-01|  5.0000e-01|  5.0000e-01|  5.0000e-01|   -4.883786|   -4.966378|   -5.464419|   -5.404349|   -5.149559|   -7.555516|    2.285145|
|        7892|  8.0999e+00|  3.2664e-09|  7.7120e-01|  5.0000e-01|  5.0000e-01|  5.0000e-01|   -4.883466|   -4.966000|   -5.464065|   -5.404126|   -5.149288|   -7.555644|    2.284825|
|        7893|  8.0999e+00|  3.2665e-09|  7.7120e-01|  5.0000e-01|  5.0000e-01|  5.0000e-01|   -4.883139|   -4.965615|   -5.463713|   -5.403897|   -5.149013|   -7.555773|    2.284505|
|        7894|  8.0998e+00|  3.2665e-09|  7.7120e-01|  5.0000e-01|  5.0000e-01|  5.0000e-01|   -4.882806|   -4.965224|   -5.463359|   -5.403662|   -5.148733|   -7.555904|    2.284186|
|        7895|  8.0997e+00|  3.2665e-09|  7.7120e-01|  5.0000e-01|  5.0000e-01|  5.0000e-01|   -4.882467|   -4.964826|   -5.463005|   -5.403420|   -5.148450|   -7.556037|    2.283868|
|        7896|  8.0997e+00|  3.2666e-09|  7.7120e-01|  5.0000e-01|  5.0000e-01|  5.0000e-01|   -4.882122|   -4.964422|   -5.462651|   -5.403171|   -5.148162|   -7.556171|    2.283550|
|        7897|  8.0996e+00|  3.2666e-09|  7.7120e-01|  5.0000e-01|  5.0000e-01|  5.0000e-01|   -4.881769|   -4.964010|   -5.462296|   -5.402916|   -5.147868|   -7.556306|    2.283233|
|        7898|  8.0995e+00|  3.2666e-09|  7.7120e-01|  5.0000e-01|  5.0000e-01|  5.0000e-01|   -4.881408|   -4.963589|   -5.461941|   -5.402655|   -5.147568|   -7.556444|    2.282916|
|        7899|  8.0995e+00|  3.2666e-09|  7.7120e-01|  5.0000e-01|  5.0000e-01|  5.0000e-01|   -4.881042|   -4.963162|   -5.461587|   -5.402386|   -5.147265|   -7.556583|    2.282600|
|        7900|  8.0994e+00|  3.2667e-09|  7.7120e-01|  5.0000e-01|  5.0000e-01|  5.0000e-01|   -4.880668|   -4.962729|   -5.461231|   -5.402112|   -5.146956|   -7.556723|    2.282284|
|        7901|  8.0994e+00|  3.2667e-09|  7.7120e-01|  5.0000e-01|  5.0000e-01|  5.0000e-01|   -4.880290|   -4.962291|   -5.460879|   -5.401831|   -5.146645|   -7.556865|    2.281969|
|        7902|  8.0993e+00|  3.2667e-09|  7.7120e-01|  5.0000e-01|  5.0000e-01|  5.0000e-01|   -4.879907|   -4.961847|   -5.460529|   -5.401545|   -5.146331|   -7.557009|    2.281655|
|        7903|  8.0992e+00|  3.2668e-09|  7.7120e-01|  5.0000e-01|  5.0000e-01|  5.0000e-01|   -4.879519|   -4.961397|   -5.460180|   -5.401253|   -5.146014|   -7.557154|    2.281341|
|        7904|  8.0992e+00|  3.2668e-09|  7.7120e-01|  5.0000e-01|  5.0000e-01|  5.0000e-01|   -4.879126|   -4.960940|   -5.459832|   -5.400957|   -5.145693|   -7.557300|    2.281028|
|        7905|  8.0991e+00|  3.2668e-09|  7.7120e-01|  5.0000e-01|  5.0000e-01|  5.0000e-01|   -4.878726|   -4.960477|   -5.459484|   -5.400656|   -5.145368|   -7.557448|    2.280716|
|        7906|  8.0990e+00|  3.2668e-09|  7.7120e-01|  5.0000e-01|  5.0000e-01|  5.0000e-01|   -4.878319|   -4.960006|   -5.459136|   -5.400348|   -5.145037|   -7.557597|    2.280404|
|        7907|  8.0990e+00|  3.2669e-09|  7.7120e-01|  5.0000e-01|  5.0000e-01|  5.0000e-01|   -4.877906|   -4.959529|   -5.458789|   -5.400035|   -5.144701|   -7.557748|    2.280093|

scontrol show job 1163487
JobId=1163487 JobName=m6_aoa15
   UserId=anthonyy(3152141) GroupId=anthonyy(3152141) MCS_label=N/A
   Priority=565839 Nice=0 Account=rrg-jphickey QOS=normal
   JobState=COMPLETING Reason=TimeLimit Dependency=(null)
   Requeue=0 Restarts=0 BatchFlag=1 Reboot=0 ExitCode=0:15
   RunTime=18:00:20 TimeLimit=18:00:00 TimeMin=N/A
   SubmitTime=2026-03-10T23:17:36 EligibleTime=2026-03-10T23:17:36
   AccrueTime=2026-03-10T23:17:36
   StartTime=2026-03-12T07:02:35 EndTime=2026-03-13T01:02:55 Deadline=N/A
   SuspendTime=None SecsPreSuspend=0 LastSchedEval=2026-03-12T07:02:35 Scheduler=Backfill
   Partition=compute AllocNode:Sid=tri-login03:3231923
   ReqNodeList=(null) ExcNodeList=(null)
   NodeList=tri[0927,0946]
   BatchHost=tri0927
   NumNodes=2 NumCPUs=384 NumTasks=128 CPUs/Task=1 ReqB:S:C:T=0:0:*:*
   ReqTRES=cpu=128,mem=1534000M,node=2,billing=128
   AllocTRES=cpu=384,mem=1534000M,node=2,billing=384
   Socks/Node=* NtasksPerN:B:S:C=64:0:*:* CoreSpec=*
   MinCPUsNode=64 MinMemoryNode=0 MinTmpDiskNode=0
   Features=(null) DelayBoot=00:00:00
   OverSubscribe=NO Contiguous=0 Licenses=(null) Network=(null)
   Command=/scratch/anthonyy/reentry/orion/cases/m6_aoa15/run.sh
   WorkDir=/scratch/anthonyy/reentry/orion/cases/m6_aoa15
   Comment=/opt/slurm/bin/sbatch --export=NONE --get-user-env=L run.sh 
   StdErr=/scratch/anthonyy/reentry/orion/cases/m6_aoa15/orion_1163487.err
   StdIn=/dev/null
   StdOut=/scratch/anthonyy/reentry/orion/cases/m6_aoa15/orion_1163487.out
   TresPerTask=cpu=1
   

sacct -j 1163487
JobID           JobName    Account    Elapsed  MaxVMSize     MaxRSS  SystemCPU    UserCPU ExitCode 
------------ ---------- ---------- ---------- ---------- ---------- ---------- ---------- -------- 
1163487        m6_aoa15 rrg-jphic+   18:00:20                        00:00.113  00:00.597      0:0 
1163487.bat+      batch rrg-jphic+   18:00:21          0      8760K  00:00.113  00:00.597     0:15 
1163487.ext+     extern rrg-jphic+   18:00:20                         00:00:00   00:00:00      0:0 
1163487.0       SU2_CFD rrg-jphic+   18:00:13                         00:00:00   00:00:00      0:0 

