Nodes:  tri[0325,0328]
Tasks:  128
NPN:    64
Config: /scratch/anthonyy/reentry/orion/config/generated/m6_aoa15.cfg

-------------------------------------------------------------------------
|    ___ _   _ ___                                                      |
|   / __| | | |_  )   Release 7.5.1 "Blackbird"                         |
|   \__ \ |_| |/ /                                                      |
|   |___/\___//___|   Suite (Computational Fluid Dynamics Code)         |
|                                                                       |
-------------------------------------------------------------------------
| SU2 Project Website: https://su2code.github.io                        |
|                                                                       |
| The SU2 Project is maintained by the SU2 Foundation                   |
| (http://su2foundation.org)                                            |
-------------------------------------------------------------------------
| Copyright 2012-2023, SU2 Contributors                                 |
|                                                                       |
| SU2 is free software; you can redistribute it and/or                  |
| modify it under the terms of the GNU Lesser General Public            |
| License as published by the Free Software Foundation; either          |
| version 2.1 of the License, or (at your option) any later version.    |
|                                                                       |
| SU2 is distributed in the hope that it will be useful,                |
| but WITHOUT ANY WARRANTY; without even the implied warranty of        |
| MERCHANTABILITY or FITNESS FOR A PARTICULAR PURPOSE. See the GNU      |
| Lesser General Public License for more details.                       |
|                                                                       |
| You should have received a copy of the GNU Lesser General Public      |
| License along with SU2. If not, see <http://www.gnu.org/licenses/>.   |
-------------------------------------------------------------------------

Parsing config file for zone 0

----------------- Physical Case Definition ( Zone 0 ) -------------------
Compressible RANS equations.
Turbulence model: Spalart-Allmaras-noft2
Hybrid RANS/LES: No Hybrid RANS/LES
Mach number: 6.
Angle of attack (AoA): 15 deg, and angle of sideslip (AoS): 0 deg.
Reynolds number: 6.86229e+08. Reference length 5.
Reading and writing binary SU2 native restart files.
Read flow solution from: restart_flow.dat.
Non-Dimensional simulation (V=1.0, Rho=1.0, T=1.0 at the farfield).
The reference area will be computed using y(2D) or z(3D) projection.
The semi-span will be computed using the max y(3D) value.
The reference length is 0.64607 m.
Reference origin for moment evaluation is (0.25, 0, 0).
Surface(s) where the force coefficients are evaluated: ORION_SURFACE.

Input mesh file name: ../../mesh/fine.su2

--------------- Space Numerical Integration ( Zone 0 ) ------------------
Jameson-Schmidt-Turkel scheme (2nd order in space) for the flow inviscid terms.
JST viscous coefficients (2nd & 4th): 0.5, 0.02.
The method includes a grid stretching correction (p = 0.3).
Scalar upwind solver for the turbulence model.
First order integration in space.
Average of gradients with correction (viscous flow terms).
Average of gradients with correction (viscous turbulence terms).
Gradient for upwind reconstruction: Green-Gauss.
Gradient for viscous and source terms: Green-Gauss.

--------------- Time Numerical Integration  ( Zone 0 ) ------------------
Local time stepping (steady state simulation).
Euler implicit method for the flow equations.
FGMRES is used for solving the linear system.
Using a ILU(0) preconditioning.
Convergence criteria of the linear solver: 1e-06.
Max number of linear iterations: 100.
CFL adaptation. Factor down: 0.5, factor up: 1.1,
                lower limit: 0.05, upper limit: 0.5,
                acceptable linear residual: 0.001.
Courant-Friedrichs-Lewy number:     0.03
Euler implicit time integration for the turbulence model.

------------------ Convergence Criteria  ( Zone 0 ) ---------------------
Maximum number of solver subiterations: 999999.
Begin convergence monitoring at iteration 5.
Residual minimum value: 1e-8.
Cauchy series min. value: 1e-10.
Number of Cauchy elements: 100.
Begin windowed time average at iteration 0.

-------------------- Output Information ( Zone 0 ) ----------------------
File writing frequency: 
+------------------------------------+
|                     File| Frequency|
+------------------------------------+
|                  RESTART|       150|
|                 PARAVIEW|       150|
|         SURFACE_PARAVIEW|       150|
+------------------------------------+
Writing the convergence history file every 1 inner iterations.
Writing the screen convergence history every 1 inner iterations.
The tabular file format is CSV (.csv).
Convergence history file name: history.
Forces breakdown file name: forces_breakdown.dat.
Surface file name: surface_flow.
Volume file name: flow.
Restart file name: restart_flow.

------------- Config File Boundary Information ( Zone 0 ) ---------------
+-----------------------------------------------------------------------+
|                        Marker Type|                        Marker Name|
+-----------------------------------------------------------------------+
|                          Far-field|                           FARFIELD|
+-----------------------------------------------------------------------+
|                     Heat flux wall|                      ORION_SURFACE|
+-----------------------------------------------------------------------+

-------------------- Output Preprocessing ( Zone 0 ) --------------------

WARNING: SURFACE_PRESSURE_DROP can only be computed for at least 2 surfaces (outlet, inlet, ...)

Screen output fields: INNER_ITER, WALL_TIME, RMS_DENSITY, RMS_MOMENTUM-X, RMS_MOMENTUM-Y, RMS_MOMENTUM-Z, RMS_ENERGY, RMS_NU_TILDE, DRAG
History output group(s): ITER, RMS_RES
Convergence field(s): RMS_DENSITY
Warning: No (valid) fields chosen for time convergence monitoring. Time convergence monitoring inactive.
Volume output fields: MACH, PRESSURE, TEMPERATURE, DENSITY, HEAT_FLUX, Y_PLUS, COORDINATES, SOLUTION

------------------- Geometry Preprocessing ( Zone 0 ) -------------------
Three dimensional problem.
62211324 grid points before partitioning.
190879888 volume elements before partitioning.
2 surface markers.
4104 boundary elements in index 0 (Marker = FARFIELD).
1824836 boundary elements in index 1 (Marker = ORION_SURFACE).
Executing the partitioning functions.
Building the graph adjacency structure.
Calling ParMETIS... graph partitioning complete (4959327 edge cuts).
Distributing ParMETIS coloring.
Rebalancing vertices.
Rebalancing volume element connectivity.
Rebalancing markers and surface elements.
66952290 vertices including ghost points. 
197997438 interior elements including halo cells. 
103171259 tetrahedra.
94500655 prisms.
325524 pyramids.
Establishing MPI communication patterns.
Setting point connectivity.
Renumbering points (Reverse Cuthill McKee Ordering).
Recomputing point connectivity.
Setting element connectivity.
Checking the numerical grid orientation.
All volume elements are correctly orientend.
All surface elements are correctly orientend.
Identifying edges and vertices.
Setting the control volume structure.
Volume of the computational grid: 535693.
Searching for the closest normal neighbors to the surfaces.
Storing a mapping from global to local point index.
Compute the surface curvature.
Max K: 132.896. Mean K: 3.9104. Standard deviation K: 7.49569.
Checking for periodicity.
Computing mesh quality statistics for the dual control volumes.
+--------------------------------------------------------------+
|           Mesh Quality Metric|        Minimum|        Maximum|
+--------------------------------------------------------------+
|    Orthogonality Angle (deg.)|        53.0661|             90|
|     CV Face Area Aspect Ratio|        1.01143|        75298.5|
|           CV Sub-Volume Ratio|        1.00029|        45.0258|
+--------------------------------------------------------------+
Finding max control volume width.
Communicating number of neighbors.
Reference area = 11.531 m^2.
Semi-span length = 2.49999 m.
Wetted area = 57.9072 m^2.
Area projection in the x-plane = 19.6343 m^2, y-plane = 11.531 m^2, z-plane = 11.531 m^2.
Max. coordinate in the x-direction = 2.575 m, y-direction = 2.49999 m, z-direction = 2.49999 m.
Min. coordinate in the x-direction = -0.71 m, y-direction = -2.49999 m, z-direction = -2.5 m.
Computing wall distances.

-------------------- Solver Preprocessing ( Zone 0 ) --------------------
Viscous flow: Computing pressure using the ideal gas law
based on the free-stream temperature and a density computed
from the Reynolds number.
Force coefficients computed using free-stream values.

-- Models:
+------------------------------------------------------------------------------+
|          Viscosity Model|        Conductivity Model|              Fluid Model|
+------------------------------------------------------------------------------+
|               SUTHERLAND|          CONSTANT_PRANDTL|             STANDARD_AIR|
+------------------------------------------------------------------------------+
-- Fluid properties:
+------------------------------------------------------------------------------+
|                  Name|    Dim. value|    Ref. value|      Unit|Non-dim. value|
+------------------------------------------------------------------------------+
|        Ref. Viscosity|     1.716e-05|       2455.73|   N.s/m^2|   6.98773e-09|
|      Sutherland Temp.|        273.15|        288.15|         K|      0.947944|
|     Sutherland Const.|         110.4|        288.15|         K|      0.383134|
+------------------------------------------------------------------------------+
|        Prandtl (Lam.)|             -|             -|         -|          0.72|
|       Prandtl (Turb.)|             -|             -|         -|           0.9|
+------------------------------------------------------------------------------+
|          Gas Constant|       287.058|       14467.7|  N.m/kg.K|     0.0198413|
|      Spec. Heat Ratio|             -|             -|         -|           1.4|
+------------------------------------------------------------------------------+
-- Initial and free-stream conditions:
+------------------------------------------------------------------------------+
|                  Name|    Dim. value|    Ref. value|      Unit|Non-dim. value|
+------------------------------------------------------------------------------+
|       Static Pressure|       99485.6|   5.01407e+06|        Pa|     0.0198413|
|               Density|       1.20274|       1.20274|    kg/m^3|             1|
|           Temperature|        288.15|        288.15|         K|             1|
|          Total Energy|   2.29123e+06|   4.16887e+06|   m^2/s^2|      0.549603|
|            Velocity-X|       1972.21|       2041.78|       m/s|      0.965926|
|            Velocity-Y|             0|       2041.78|       m/s|             0|
|            Velocity-Z|       528.452|       2041.78|       m/s|      0.258819|
|    Velocity Magnitude|       2041.78|       2041.78|       m/s|             1|
+------------------------------------------------------------------------------+
|             Viscosity|    1.7893e-05|       2455.73|   N.s/m^2|    7.2862e-09|
|          Conductivity|             -|   3.55289e+07|   W/m^2.K|             -|
|     Turb. Kin. Energy|       15633.3|   4.16887e+06|   m^2/s^2|       0.00375|
|     Spec. Dissipation|   1.05085e+08|       2041.78|       1/s|       51467.1|
+------------------------------------------------------------------------------+
|           Mach Number|             -|             -|         -|             6|
|       Reynolds Number|             -|             -|         -|   6.86229e+08|
+------------------------------------------------------------------------------+
Initialize Jacobian structure (Navier-Stokes). MG level: 0.
Initialize Jacobian structure (SA model).

------------------- Numerics Preprocessing ( Zone 0 ) -------------------

----------------- Integration Preprocessing ( Zone 0 ) ------------------

------------------- Iteration Preprocessing ( Zone 0 ) ------------------
Euler/Navier-Stokes/RANS fluid iteration.

------------------------------ Begin Solver -----------------------------

Simulation Run using the Single-zone Driver
WARNING: SU2 was not compiled for an AVX-capable architecture. Performance could be better,
         see https://su2code.github.io/docs_v7/Build-SU2-Linux-MacOS/#compiler-optimizations
+--------------------------------------------------------------------------------------------------------------------+
|  Inner_Iter|   Time(sec)|    rms[Rho]|   rms[RhoU]|   rms[RhoV]|   rms[RhoW]|   rms[RhoE]|     rms[nu]|          CD|
+--------------------------------------------------------------------------------------------------------------------+
|           0|  5.6067e+01|   -5.408558|   -5.498334|   -6.468324|   -6.000356|   -5.644223|  -13.125746|    0.542318|
|           1|  3.1450e+01|   -5.408513|   -5.501343|   -6.471704|   -6.002654|   -5.644074|  -13.132827|    0.563575|
|           2|  2.2959e+01|   -5.408413|   -5.506107|   -6.477111|   -6.006265|   -5.643769|  -13.145048|    0.586867|
|           3|  1.8709e+01|   -5.408257|   -5.511100|   -6.482720|   -6.010015|   -5.643364|  -13.156456|    0.612390|
|           4|  1.6180e+01|   -5.408034|   -5.516340|   -6.488502|   -6.013915|   -5.642846|  -13.167331|    0.640358|
|           5|  1.4490e+01|   -5.407732|   -5.521849|   -6.494411|   -6.017974|   -5.642198|  -13.178152|    0.671008|
|           6|  1.3275e+01|   -5.407335|   -5.527649|   -6.500387|   -6.022202|   -5.641401|  -13.189129|    0.704602|
|           7|  1.2372e+01|   -5.406827|   -5.533763|   -6.506352|   -6.026610|   -5.640435|  -13.200444|    0.741429|
|           8|  1.1748e+01|   -5.406187|   -5.540211|   -6.512207|   -6.031204|   -5.639273|  -13.212101|    0.781812|
|           9|  1.1238e+01|   -5.405394|   -5.547006|   -6.517839|   -6.035987|   -5.637887|  -13.224184|    0.826109|
|          10|  1.0832e+01|   -5.404419|   -5.554173|   -6.523117|   -6.040967|   -5.636242|  -13.239852|    0.874721|
|          11|  1.0497e+01|   -5.403233|   -5.561770|   -6.527853|   -6.046181|   -5.634300|  -13.255959|    0.928098|
|          12|  1.0204e+01|   -5.401802|   -5.569859|   -6.531820|   -6.051662|   -5.632020|  -13.270163|    0.986743|
|          13|  9.9490e+00|   -5.400096|   -5.578491|   -6.534777|   -6.057433|   -5.629358|  -13.283992|    1.051222|
|          14|  9.7260e+00|   -5.398082|   -5.587719|   -6.536483|   -6.063530|   -5.626269|  -13.297732|    1.122170|
|          15|  9.5340e+00|   -5.395720|   -5.597589|   -6.536689|   -6.069990|   -5.622697|  -13.312329|    1.200306|
|          16|  9.3754e+00|   -5.392963|   -5.608138|   -6.535181|   -6.076835|   -5.618576|  -13.326067|    1.286436|
|          17|  9.2653e+00|   -5.389775|   -5.619374|   -6.531817|   -6.084080|   -5.613848|  -13.339389|    1.381471|
|          18|  9.1707e+00|   -5.386127|   -5.631259|   -6.526525|   -6.091734|   -5.608460|  -13.354564|    1.486434|
|          19|  9.0867e+00|   -5.382007|   -5.643687|   -6.519308|   -6.099784|   -5.602372|  -13.367980|    1.602468|
|          20|  9.0095e+00|   -5.377419|   -5.656442|   -6.510217|   -6.108182|   -5.595566|  -13.380508|    1.730855|
|          21|  8.9378e+00|   -5.372422|   -5.669242|   -6.499329|   -6.116881|   -5.588080|  -13.392980|    1.873044|
|          22|  8.8714e+00|   -5.367126|   -5.681616|   -6.486712|   -6.125741|   -5.580016|  -13.404760|    2.030662|
|          23|  8.8069e+00|   -5.361629|   -5.692521|   -6.472318|   -6.134333|   -5.571487|  -13.416649|    2.205470|
|          24|  8.7610e+00|   -5.356171|   -5.700933|   -6.455987|   -6.142256|   -5.562781|  -13.427061|    2.399359|
|          25|  8.7412e+00|   -5.351125|   -5.705760|   -6.437395|   -6.148884|   -5.554372|  -13.436947|    2.614265|
|          26|  8.7142e+00|   -5.347078|   -5.706103|   -6.416197|   -6.153429|   -5.546986|  -13.446826|    2.835830|
|          27|  8.6903e+00|   -5.345001|   -5.701602|   -6.394510|   -6.155466|   -5.542240|  -13.454665|    3.060136|
|          28|  8.6694e+00|   -5.345396|   -5.693212|   -6.372728|   -6.154535|   -5.540696|  -13.460998|    3.285703|
|          29|  8.6479e+00|   -5.348642|   -5.682226|   -6.350720|   -6.150279|   -5.542704|  -13.465988|    3.510737|
|          30|  8.6291e+00|   -5.355101|   -5.670117|   -6.328261|   -6.142732|   -5.548620|  -13.468984|    3.733238|
|          31|  8.6117e+00|   -5.365059|   -5.658156|   -6.305091|   -6.132149|   -5.558770|  -13.470366|    3.950919|
|          32|  8.5948e+00|   -5.378657|   -5.647213|   -6.280973|   -6.118856|   -5.573367|  -13.470317|    4.161331|
|          33|  8.5804e+00|   -5.395736|   -5.637688|   -6.255739|   -6.103073|   -5.592371|  -13.468385|    4.361911|
|          34|  8.5633e+00|   -5.415657|   -5.629599|   -6.229303|   -6.084894|   -5.615274|  -13.464884|    4.550004|
|          35|  8.5504e+00|   -5.436987|   -5.622624|   -6.201666|   -6.064250|   -5.640712|  -13.460133|    4.722895|
|          36|  8.5365e+00|   -5.457295|   -5.616386|   -6.172956|   -6.041251|   -5.666079|  -13.454053|    4.877836|
|          37|  8.5235e+00|   -5.473114|   -5.610519|   -6.143461|   -6.016271|   -5.687185|  -13.447094|    5.012089|
|          38|  8.5087e+00|   -5.480609|   -5.604864|   -6.113630|   -5.990008|   -5.698753|  -13.439823|    5.122966|
|          39|  8.5016e+00|   -5.476947|   -5.599443|   -6.084056|   -5.963348|   -5.696192|  -13.432448|    5.207880|
|          40|  8.4916e+00|   -5.461688|   -5.594420|   -6.055423|   -5.937278|   -5.678077|  -13.425351|    5.264423|
|          41|  8.4818e+00|   -5.437038|   -5.590206|   -6.028510|   -5.912973|   -5.647049|  -13.418991|    5.290578|
|          42|  8.4717e+00|   -5.406542|   -5.587317|   -6.004194|   -5.891342|   -5.607961|  -13.413861|    5.285068|
|          43|  8.4640e+00|   -5.373661|   -5.586295|   -5.983216|   -5.873109|   -5.565535|  -13.410823|    5.248077|
|          44|  8.4547e+00|   -5.341343|   -5.587519|   -5.965948|   -5.858415|   -5.523753|  -13.409044|    5.181571|
|          45|  8.4459e+00|   -5.311838|   -5.591009|   -5.952215|   -5.847004|   -5.485615|  -13.406065|    5.089041|
|          46|  8.4388e+00|   -5.286524|   -5.596231|   -5.941653|   -5.839069|   -5.452888|  -13.402006|    4.973989|
|          47|  8.4317e+00|   -5.265409|   -5.602690|   -5.935161|   -5.836907|   -5.425364|  -13.396855|    4.838628|
|          48|  8.4248e+00|   -5.248394|   -5.610582|   -5.934815|   -5.840461|   -5.402842|  -13.390113|    4.683674|
|          49|  8.4192e+00|   -5.236041|   -5.619223|   -5.938794|   -5.846046|   -5.386237|  -13.381109|    4.509904|
|          50|  8.4142e+00|   -5.228828|   -5.626313|   -5.942745|   -5.849866|   -5.376392|  -13.369437|    4.320209|
|          51|  8.4059e+00|   -5.226042|   -5.630973|   -5.944228|   -5.849082|   -5.372671|  -13.355078|    4.118163|
|          52|  8.3998e+00|   -5.226351|   -5.633364|   -5.941377|   -5.841380|   -5.373700|  -13.338524|    3.907262|
|          53|  8.3914e+00|   -5.228082|   -5.633998|   -5.932706|   -5.825544|   -5.377608|  -13.321334|    3.690722|
|          54|  8.3852e+00|   -5.229362|   -5.633196|   -5.917387|   -5.801933|   -5.382018|  -13.305080|    3.471644|
|          55|  8.3808e+00|   -5.228420|   -5.630730|   -5.895581|   -5.772894|   -5.384240|  -13.291021|    3.253153|
|          56|  8.3752e+00|   -5.224030|   -5.625641|   -5.868580|   -5.741869|   -5.381841|  -13.280336|    3.038475|
|          57|  8.3691e+00|   -5.215913|   -5.616297|   -5.838569|   -5.712237|   -5.373493|  -13.274317|    2.830969|
|          58|  8.3635e+00|   -5.204900|   -5.600969|   -5.808163|   -5.686784|   -5.359638|  -13.274576|    2.634082|
|          59|  8.3566e+00|   -5.192608|   -5.578844|   -5.780007|   -5.667195|   -5.342311|  -13.274100|    2.451220|
|          60|  8.3510e+00|   -5.181263|   -5.551394|   -5.756258|   -5.654173|   -5.324826|  -13.269006|    2.285378|
|          61|  8.3459e+00|   -5.172684|   -5.521452|   -5.738178|   -5.647502|   -5.310227|  -13.258104|    2.139083|
|          62|  8.3408e+00|   -5.167937|   -5.492403|   -5.726347|   -5.646082|   -5.300602|  -13.241189|    2.014339|
|          63|  8.3364e+00|   -5.167240|   -5.467394|   -5.720616|   -5.647893|   -5.296929|  -13.219063|    1.912640|
|          64|  8.3308e+00|   -5.169730|   -5.449094|   -5.720061|   -5.650232|   -5.298622|  -13.194131|    1.834956|
|          65|  8.3272e+00|   -5.173548|   -5.439059|   -5.723125|   -5.650409|   -5.303805|  -13.169309|    1.781797|
|          66|  8.3230e+00|   -5.176210|   -5.437862|   -5.727657|   -5.646601|   -5.309338|  -13.147236|    1.753301|
|          67|  8.3196e+00|   -5.175241|   -5.445205|   -5.731264|   -5.638577|   -5.311346|  -13.130032|    1.749232|
|          68|  8.3154e+00|   -5.169052|   -5.459853|   -5.731993|   -5.627768|   -5.306575|  -13.119385|    1.768945|
|          69|  8.3124e+00|   -5.157734|   -5.479480|   -5.729135|   -5.616693|   -5.294145|  -13.117612|    1.811358|
|          70|  8.3110e+00|   -5.143238|   -5.500567|   -5.723575|   -5.607902|   -5.276361|  -13.124128|    1.874862|
|          71|  8.3081e+00|   -5.128543|   -5.518937|   -5.717221|   -5.603280|   -5.257617|  -13.135836|    1.957058|
|          72|  8.3052e+00|   -5.116278|   -5.531187|   -5.712250|   -5.603819|   -5.241985|  -13.150200|    2.055514|
|          73|  8.3026e+00|   -5.108499|   -5.536303|   -5.710483|   -5.609616|   -5.232529|  -13.163550|    2.168021|
|          74|  8.2968e+00|   -5.106632|   -5.535642|   -5.712878|   -5.619878|   -5.231095|  -13.171397|    2.292257|
|          75|  8.2921e+00|   -5.111040|   -5.532067|   -5.719525|   -5.632988|   -5.238087|  -13.170816|    2.425608|
|          76|  8.2890e+00|   -5.121100|   -5.528287|   -5.729608|   -5.646594|   -5.252753|  -13.161641|    2.565104|
|          77|  8.2850e+00|   -5.135359|   -5.526000|   -5.741509|   -5.658005|   -5.273147|  -13.147030|    2.707751|
|          78|  8.2807e+00|   -5.151649|   -5.525773|   -5.753110|   -5.665016|   -5.296093|  -13.130165|    2.850660|
|          79|  8.2775e+00|   -5.167500|   -5.527602|   -5.762334|   -5.666888|   -5.317631|  -13.113885|    2.991063|
|          80|  8.2727e+00|   -5.180667|   -5.531408|   -5.767650|   -5.664874|   -5.333689|  -13.100472|    3.126328|
|          81|  8.2682e+00|   -5.189369|   -5.536509|   -5.768737|   -5.661535|   -5.341265|  -13.091313|    3.253993|
|          82|  8.2653e+00|   -5.193125|   -5.542042|   -5.766885|   -5.659564|   -5.340320|  -13.087673|    3.371795|
|          83|  8.2625e+00|   -5.193066|   -5.547374|   -5.764559|   -5.660905|   -5.333977|  -13.091764|    3.477664|
|          84|  8.2611e+00|   -5.191996|   -5.552399|   -5.764255|   -5.666511|   -5.327568|  -13.101328|    3.569738|
|          85|  8.2582e+00|   -5.192536|   -5.557232|   -5.767670|   -5.676285|   -5.325171|  -13.113093|    3.646367|
|          86|  8.2558e+00|   -5.196515|   -5.562259|   -5.775507|   -5.689263|   -5.329103|  -13.123838|    3.706133|
|          87|  8.2544e+00|   -5.204815|   -5.567624|   -5.787462|   -5.703721|   -5.340113|  -13.133000|    3.747900|
|          88|  8.2514e+00|   -5.217037|   -5.573342|   -5.802396|   -5.717388|   -5.357328|  -13.138975|    3.770892|
|          89|  8.2491e+00|   -5.231542|   -5.579783|   -5.818627|   -5.728121|   -5.378344|  -13.140965|    3.774774|
|          90|  8.2479e+00|   -5.245997|   -5.587315|   -5.834180|   -5.734523|   -5.399791|  -13.139360|    3.759834|
|          91|  8.2449e+00|   -5.257922|   -5.596176|   -5.847169|   -5.736459|   -5.417923|  -13.135214|    3.727127|
|          92|  8.2425e+00|   -5.265341|   -5.606439|   -5.856244|   -5.734987|   -5.429569|  -13.129976|    3.678544|
|          93|  8.2405e+00|   -5.267470|   -5.617967|   -5.860938|   -5.731876|   -5.433336|  -13.125171|    3.616556|
|          94|  8.2382e+00|   -5.264913|   -5.630275|   -5.861767|   -5.729028|   -5.430042|  -13.122066|    3.543928|
|          95|  8.2363e+00|   -5.259279|   -5.642340|   -5.859996|   -5.728040|   -5.422096|  -13.121537|    3.463646|
|          96|  8.2348e+00|   -5.252650|   -5.652701|   -5.857285|   -5.730030|   -5.412586|  -13.124001|    3.378827|
|          97|  8.2322e+00|   -5.247127|   -5.659736|   -5.855273|   -5.735571|   -5.404433|  -13.129911|    3.292614|
|          98|  8.2296e+00|   -5.244504|   -5.662059|   -5.855276|   -5.744680|   -5.399972|  -13.139404|    3.208042|
|          99|  8.2271e+00|   -5.246119|   -5.659185|   -5.858127|   -5.756812|   -5.400861|  -13.152034|    3.127894|
|         100|  8.2258e+00|   -5.252787|   -5.651863|   -5.864094|   -5.770843|   -5.408077|  -13.165803|    3.054652|
|         101|  8.2244e+00|   -5.264519|   -5.641818|   -5.872875|   -5.785106|   -5.421627|  -13.178141|    2.990456|
|         102|  8.2226e+00|   -5.280487|   -5.631210|   -5.883753|   -5.797618|   -5.440606|  -13.186714|    2.937087|
|         103|  8.2205e+00|   -5.299159|   -5.621887|   -5.895657|   -5.806472|   -5.463359|  -13.190116|    2.895957|
|         104|  8.2186e+00|   -5.318294|   -5.615166|   -5.907255|   -5.810427|   -5.487299|  -13.188234|    2.868094|
|         105|  8.2162e+00|   -5.335075|   -5.611851|   -5.917129|   -5.809390|   -5.508905|  -13.181988|    2.854126|
|         106|  8.2146e+00|   -5.346615|   -5.612322|   -5.924075|   -5.804407|   -5.524248|  -13.172915|    2.854275|
|         107|  8.2134e+00|   -5.350840|   -5.616651|   -5.927409|   -5.797191|   -5.530276|  -13.162639|    2.868340|
|         108|  8.2114e+00|   -5.347325|   -5.624641|   -5.927187|   -5.789575|   -5.526247|  -13.152407|    2.895692|
|         109|  8.2094e+00|   -5.337461|   -5.635850|   -5.924132|   -5.783073|   -5.514100|  -13.143122|    2.935155|
|         110|  8.2078e+00|   -5.323810|   -5.649448|   -5.919362|   -5.778715|   -5.497409|  -13.135445|    2.985007|
|         111|  8.2057e+00|   -5.309021|   -5.664189|   -5.914029|   -5.777010|   -5.479710|  -13.129738|    3.043355|
|         112|  8.2046e+00|   -5.295239|   -5.678493|   -5.909119|   -5.778061|   -5.463656|  -13.126178|    3.108190|
|         113|  8.2060e+00|   -5.283893|   -5.690498|   -5.905294|   -5.781621|   -5.450848|  -13.124769|    3.177433|
|         114|  8.2083e+00|   -5.275805|   -5.698341|   -5.902929|   -5.787165|   -5.442089|  -13.125382|    3.248974|
|         115|  8.2087e+00|   -5.271488|   -5.700653|   -5.902125|   -5.793930|   -5.437842|  -13.128382|    3.320750|
|         116|  8.2068e+00|   -5.271195|   -5.697076|   -5.902752|   -5.800941|   -5.438295|  -13.134285|    3.390796|
|         117|  8.2061e+00|   -5.274968|   -5.688472|   -5.904453|   -5.807096|   -5.443444|  -13.141476|    3.457278|
|         118|  8.2039e+00|   -5.282370|   -5.676533|   -5.906699|   -5.811221|   -5.452695|  -13.147891|    3.518515|
|         119|  8.2020e+00|   -5.292411|   -5.663378|   -5.908982|   -5.812310|   -5.464831|  -13.151615|    3.573003|
|         120|  8.2020e+00|   -5.303776|   -5.650856|   -5.910787|   -5.809833|   -5.478437|  -13.151296|    3.619440|
|         121|  8.2010e+00|   -5.314800|   -5.640243|   -5.911582|   -5.803816|   -5.491676|  -13.146377|    3.656766|
|         122|  8.1997e+00|   -5.323616|   -5.632377|   -5.910888|   -5.794894|   -5.502424|  -13.137025|    3.684188|
|         123|  8.1980e+00|   -5.328423|   -5.627827|   -5.908321|   -5.784091|   -5.508535|  -13.124056|    3.701199|
|         124|  8.1974e+00|   -5.327953|   -5.626970|   -5.903695|   -5.772653|   -5.508397|  -13.108667|    3.707594|
|         125|  8.1966e+00|   -5.321879|   -5.629992|   -5.897083|   -5.761795|   -5.501473|  -13.092295|    3.703478|
|         126|  8.1944e+00|   -5.310961|   -5.636811|   -5.888875|   -5.752562|   -5.488566|  -13.076221|    3.689268|
|         127|  8.1936e+00|   -5.296810|   -5.646943|   -5.879733|   -5.745731|   -5.471534|  -13.061500|    3.665690|
|         128|  8.1939e+00|   -5.281340|   -5.659305|   -5.870507|   -5.741761|   -5.452667|  -13.048843|    3.633779|
|         129|  8.1957e+00|   -5.266370|   -5.672187|   -5.862119|   -5.740791|   -5.434200|  -13.038382|    3.594784|
|         130|  8.1955e+00|   -5.253389|   -5.683396|   -5.855443|   -5.742639|   -5.417991|  -13.032996|    3.550089|
|         131|  8.1939e+00|   -5.243712|   -5.690712|   -5.851197|   -5.746790|   -5.405742|  -13.035268|    3.501192|
|         132|  8.1929e+00|   -5.238354|   -5.692705|   -5.849712|   -5.752408|   -5.398830|  -13.043361|    3.449651|
|         133|  8.1907e+00|   -5.237610|   -5.689340|   -5.850943|   -5.758368|   -5.397735|  -13.055093|    3.397032|
|         134|  8.1888e+00|   -5.241503|   -5.681675|   -5.854480|   -5.763409|   -5.402544|  -13.068072|    3.344870|
|         135|  8.1874e+00|   -5.249491|   -5.671586|   -5.859616|   -5.766384|   -5.412528|  -13.079585|    3.294617|
|         136|  8.1856e+00|   -5.260402|   -5.661387|   -5.865411|   -5.766617|   -5.426420|  -13.087426|    3.247608|
|         137|  8.1859e+00|   -5.272659|   -5.652759|   -5.870785|   -5.764062|   -5.442372|  -13.090452|    3.205027|
|         138|  8.1849e+00|   -5.284334|   -5.646750|   -5.874681|   -5.759257|   -5.457933|  -13.088303|    3.167892|
|         139|  8.1833e+00|   -5.293422|   -5.643906|   -5.876296|   -5.753189|   -5.470349|  -13.081549|    3.137035|
|         140|  8.1811e+00|   -5.298268|   -5.644390|   -5.875262|   -5.747014|   -5.477145|  -13.071501|    3.113093|
|         141|  8.1795e+00|   -5.298075|   -5.648063|   -5.871755|   -5.741840|   -5.476952|  -13.059788|    3.096506|
|         142|  8.1790e+00|   -5.293136|   -5.654398|   -5.866459|   -5.738556|   -5.469988|  -13.047917|    3.087507|
|         143|  8.1776e+00|   -5.284692|   -5.662428|   -5.860420|   -5.737709|   -5.458047|  -13.037206|    3.086130|
|         144|  8.1789e+00|   -5.274602|   -5.670905|   -5.854834|   -5.739510|   -5.443860|  -13.028445|    3.092208|
|         145|  8.1782e+00|   -5.264793|   -5.678429|   -5.850790|   -5.743791|   -5.430138|  -13.022339|    3.105384|
|         146|  8.1766e+00|   -5.256895|   -5.683693|   -5.849135|   -5.749987|   -5.419064|  -13.023039|    3.125121|
|         147|  8.1758e+00|   -5.252445|   -5.685979|   -5.850289|   -5.757203|   -5.412672|  -13.029705|    3.150716|
|         148|  8.1745e+00|   -5.252075|   -5.685234|   -5.854131|   -5.764232|   -5.411742|  -13.040419|    3.181309|
|         149|  8.1739e+00|   -5.255859|   -5.681954|   -5.860103|   -5.769811|   -5.416323|  -13.053386|    3.215948|
|         150|  8.1728e+00|   -5.263200|   -5.677111|   -5.867313|   -5.772887|   -5.425562|  -13.066101|    3.253634|
+-----------------------------------------------------------------------+
|        File Writing Summary       |              Filename             |
+-----------------------------------------------------------------------+
|SU2 binary restart                 |restart_flow.dat                   |
|Paraview                           |flow.vtu                           |
|Paraview surface                   |surface_flow.vtu                   |
+-----------------------------------------------------------------------+
+--------------------------------------------------------------------------------------------------------------------+
|  Inner_Iter|   Time(sec)|    rms[Rho]|   rms[RhoU]|   rms[RhoV]|   rms[RhoW]|   rms[RhoE]|     rms[nu]|          CD|
+--------------------------------------------------------------------------------------------------------------------+
|         151|  8.3201e+00|   -5.272882|   -5.672137|   -5.874668|   -5.772971|   -5.438039|  -13.076303|    3.293331|
|         152|  8.3177e+00|   -5.283349|   -5.668173|   -5.881009|   -5.770233|   -5.451875|  -13.082306|    3.333995|
|         153|  8.3145e+00|   -5.292848|   -5.665996|   -5.885289|   -5.765373|   -5.464830|  -13.083354|    3.374585|
|         154|  8.3105e+00|   -5.299686|   -5.666018|   -5.886804|   -5.759439|   -5.474595|  -13.079659|    3.414080|
|         155|  8.3084e+00|   -5.302602|   -5.668331|   -5.885347|   -5.753548|   -5.479295|  -13.072186|    3.451521|
|         156|  8.3043e+00|   -5.301138|   -5.672758|   -5.881264|   -5.748700|   -5.478097|  -13.062377|    3.486031|
|         157|  8.3004e+00|   -5.295767|   -5.678766|   -5.875345|   -5.745646|   -5.471424|  -13.051652|    3.516838|
|         158|  8.2969e+00|   -5.287618|   -5.685374|   -5.868637|   -5.744794|   -5.460770|  -13.041283|    3.543291|
|         159|  8.2940e+00|   -5.278258|   -5.691371|   -5.862256|   -5.746229|   -5.448297|  -13.032088|    3.564869|
|         160|  8.2906e+00|   -5.269251|   -5.695491|   -5.857167|   -5.749689|   -5.436133|  -13.024155|    3.581196|
|         161|  8.2873e+00|   -5.261873|   -5.696694|   -5.854089|   -5.754567|   -5.425973|  -13.020157|    3.592037|
|         162|  8.2844e+00|   -5.257309|   -5.694548|   -5.853425|   -5.759972|   -5.419401|  -13.022091|    3.597309|
|         163|  8.2811e+00|   -5.256301|   -5.689381|   -5.855087|   -5.764788|   -5.417428|  -13.028551|    3.597069|
|         164|  8.2777e+00|   -5.258911|   -5.682061|   -5.858590|   -5.767920|   -5.420173|  -13.037813|    3.591514|
|         165|  8.2737e+00|   -5.264666|   -5.673731|   -5.863153|   -5.768514|   -5.427003|  -13.047707|    3.580964|
|         166|  8.2701e+00|   -5.272493|   -5.665819|   -5.867839|   -5.766235|   -5.436650|  -13.056145|    3.565857|
|         167|  8.2673e+00|   -5.280963|   -5.659495|   -5.871661|   -5.761337|   -5.447462|  -13.061409|    3.546728|
|         168|  8.2638e+00|   -5.288446|   -5.655527|   -5.873722|   -5.754529|   -5.457449|  -13.062483|    3.524197|
|         169|  8.2601e+00|   -5.293344|   -5.654334|   -5.873390|   -5.746804|   -5.464529|  -13.059128|    3.498931|
|         170|  8.2571e+00|   -5.294441|   -5.656043|   -5.870433|   -5.739212|   -5.466973|  -13.051772|    3.471621|
|         171|  8.2546e+00|   -5.291240|   -5.660513|   -5.865079|   -5.732691|   -5.463925|  -13.041417|    3.442969|
|         172|  8.2519e+00|   -5.284146|   -5.667314|   -5.857961|   -5.727971|   -5.455702|  -13.029196|    3.413676|
|         173|  8.2476e+00|   -5.274250|   -5.675528|   -5.849955|   -5.725488|   -5.443544|  -13.016268|    3.384430|
|         174|  8.2446e+00|   -5.263003|   -5.683745|   -5.842070|   -5.725376|   -5.429293|  -13.003461|    3.355893|
|         175|  8.2416e+00|   -5.251940|   -5.690280|   -5.835269|   -5.727453|   -5.414949|  -12.990853|    3.328690|
|         176|  8.2378e+00|   -5.242391|   -5.693513|   -5.830370|   -5.731205|   -5.402260|  -12.982604|    3.303391|
|         177|  8.2344e+00|   -5.235630|   -5.692445|   -5.827942|   -5.735817|   -5.392937|  -12.981073|    3.280507|
|         178|  8.2315e+00|   -5.232582|   -5.687142|   -5.828105|   -5.740269|   -5.388283|  -12.985356|    3.260478|
|         179|  8.2278e+00|   -5.233492|   -5.678593|   -5.830589|   -5.743534|   -5.388710|  -12.993955|    3.243668|
|         180|  8.2243e+00|   -5.238209|   -5.668248|   -5.834775|   -5.744752|   -5.394084|  -13.004915|    3.230365|
|         181|  8.2218e+00|   -5.245959|   -5.657862|   -5.839788|   -5.743479|   -5.403484|  -13.015983|    3.220773|
|         182|  8.2182e+00|   -5.255444|   -5.649091|   -5.844601|   -5.739827|   -5.415457|  -13.024995|    3.215014|
|         183|  8.2144e+00|   -5.265009|   -5.643027|   -5.848159|   -5.734372|   -5.428027|  -13.030220|    3.213125|
|         184|  8.2114e+00|   -5.272821|   -5.640242|   -5.849592|   -5.728000|   -5.438819|  -13.030828|    3.215061|
|         185|  8.2085e+00|   -5.277202|   -5.640903|   -5.848409|   -5.721701|   -5.445463|  -13.026711|    3.220697|
|         186|  8.2052e+00|   -5.277101|   -5.644836|   -5.844643|   -5.716394|   -5.446286|  -13.018498|    3.229829|
|         187|  8.2030e+00|   -5.272455|   -5.651554|   -5.838839|   -5.712815|   -5.440893|  -13.007346|    3.242179|
|         188|  8.1996e+00|   -5.264114|   -5.660051|   -5.831911|   -5.711418|   -5.430201|  -12.994630|    3.257399|
|         189|  8.1967e+00|   -5.253587|   -5.668844|   -5.824992|   -5.712339|   -5.416253|  -12.981454|    3.275082|
|         190|  8.1940e+00|   -5.242675|   -5.676237|   -5.819212|   -5.715367|   -5.401544|  -12.968425|    3.294778|
|         191|  8.1911e+00|   -5.233064|   -5.680675|   -5.815521|   -5.719946|   -5.388387|  -12.960991|    3.316008|
|         192|  8.1882e+00|   -5.226358|   -5.681245|   -5.814523|   -5.725228|   -5.378962|  -12.960406|    3.338268|
|         193|  8.1857e+00|   -5.223571|   -5.678025|   -5.816324|   -5.730223|   -5.374668|  -12.965825|    3.361045|
|         194|  8.1830e+00|   -5.225048|   -5.671838|   -5.820575|   -5.733970|   -5.375991|  -12.975709|    3.383815|
|         195|  8.1801e+00|   -5.230610|   -5.663931|   -5.826533|   -5.735722|   -5.382705|  -12.987994|    3.406064|
|         196|  8.1776e+00|   -5.239379|   -5.655872|   -5.833176|   -5.735181|   -5.393761|  -13.000680|    3.427303|
|         197|  8.1749e+00|   -5.249957|   -5.649102|   -5.839358|   -5.732552|   -5.407537|  -13.011668|    3.447072|
|         198|  8.1722e+00|   -5.260603|   -5.644602|   -5.843978|   -5.728441|   -5.421892|  -13.019140|    3.464958|
|         199|  8.1700e+00|   -5.269437|   -5.642898|   -5.846194|   -5.723701|   -5.434327|  -13.021942|    3.480598|
|         200|  8.1671e+00|   -5.274782|   -5.644126|   -5.845626|   -5.719227|   -5.442411|  -13.019858|    3.493686|
|         201|  8.1641e+00|   -5.275624|   -5.648108|   -5.842454|   -5.715816|   -5.444496|  -13.013485|    3.503982|
|         202|  8.1617e+00|   -5.271939|   -5.654372|   -5.837348|   -5.714072|   -5.440206|  -13.004009|    3.511314|
|         203|  8.1600e+00|   -5.264565|   -5.661891|   -5.831319|   -5.714298|   -5.430559|  -12.992885|    3.515579|
|         204|  8.1583e+00|   -5.255060|   -5.669316|   -5.825526|   -5.716473|   -5.417745|  -12.981298|    3.516747|
|         205|  8.1562e+00|   -5.245256|   -5.675222|   -5.821038|   -5.720255|   -5.404348|  -12.969821|    3.514859|
|         206|  8.1546e+00|   -5.236798|   -5.678345|   -5.818677|   -5.724966|   -5.392623|  -12.963324|    3.510025|
|         207|  8.1528e+00|   -5.231233|   -5.678099|   -5.818886|   -5.729743|   -5.384661|  -12.963010|    3.502422|
|         208|  8.1509e+00|   -5.229475|   -5.674680|   -5.821596|   -5.733682|   -5.381695|  -12.968065|    3.492289|
|         209|  8.1489e+00|   -5.231747|   -5.668819|   -5.826311|   -5.736001|   -5.384023|  -12.977027|    3.479922|
|         210|  8.1465e+00|   -5.237689|   -5.661635|   -5.832199|   -5.736233|   -5.391190|  -12.988325|    3.465661|
|         211|  8.1448e+00|   -5.246300|   -5.654508|   -5.838241|   -5.734356|   -5.402006|  -12.999882|    3.449878|
|         212|  8.1425e+00|   -5.256147|   -5.648656|   -5.843375|   -5.730766|   -5.414786|  -13.009697|    3.432972|
|         213|  8.1398e+00|   -5.265547|   -5.644907|   -5.846676|   -5.726152|   -5.427458|  -13.016155|    3.415353|
|         214|  8.1377e+00|   -5.272780|   -5.643692|   -5.847527|   -5.721330|   -5.437743|  -13.018267|    3.397442|
|         215|  8.1360e+00|   -5.276422|   -5.645106|   -5.845768|   -5.717077|   -5.443597|  -13.015873|    3.379657|
|         216|  8.1335e+00|   -5.275750|   -5.648969|   -5.841730|   -5.714035|   -5.443821|  -13.009529|    3.362404|
|         217|  8.1308e+00|   -5.270947|   -5.654833|   -5.836122|   -5.712646|   -5.438381|  -13.000450|    3.346070|
|         218|  8.1305e+00|   -5.262938|   -5.661742|   -5.829894|   -5.713067|   -5.428383|  -12.989926|    3.331011|
|         219|  8.1293e+00|   -5.253209|   -5.668430|   -5.824061|   -5.715156|   -5.415812|  -12.978909|    3.317545|
|         220|  8.1278e+00|   -5.243405|   -5.673545|   -5.819521|   -5.718495|   -5.402893|  -12.967503|    3.305949|
|         221|  8.1255e+00|   -5.234945|   -5.675865|   -5.816946|   -5.722395|   -5.391518|  -12.959413|    3.296450|
|         222|  8.1232e+00|   -5.229146|   -5.674755|   -5.816699|   -5.726067|   -5.383444|  -12.957008|    3.289222|
|         223|  8.1217e+00|   -5.226919|   -5.670374|   -5.818704|   -5.728758|   -5.379915|  -12.959853|    3.284385|
|         224|  8.1199e+00|   -5.228475|   -5.663471|   -5.822502|   -5.729880|   -5.381244|  -12.966833|    3.282000|
|         225|  8.1175e+00|   -5.233531|   -5.655186|   -5.827352|   -5.729145|   -5.387106|  -12.976268|    3.282070|
|         226|  8.1150e+00|   -5.241230|   -5.646893|   -5.832342|   -5.726637|   -5.396492|  -12.986390|    3.284539|
|         227|  8.1128e+00|   -5.250263|   -5.639841|   -5.836537|   -5.722767|   -5.407888|  -12.995406|    3.289297|
|         228|  8.1109e+00|   -5.259069|   -5.634905|   -5.839118|   -5.718167|   -5.419415|  -13.001726|    3.296177|
|         229|  8.1091e+00|   -5.266010|   -5.632545|   -5.839537|   -5.713541|   -5.428979|  -13.004268|    3.304965|
|         230|  8.1067e+00|   -5.269679|   -5.632884|   -5.837633|   -5.709542|   -5.434643|  -13.002654|    3.315400|
|         231|  8.1047e+00|   -5.269263|   -5.635771|   -5.833664|   -5.706700|   -5.435154|  -12.997154|    3.327185|
|         232|  8.1029e+00|   -5.264790|   -5.640832|   -5.828232|   -5.705376|   -5.430290|  -12.988695|    3.340001|
|         233|  8.1013e+00|   -5.257002|   -5.647227|   -5.822159|   -5.705675|   -5.420836|  -12.978349|    3.353507|
|         234|  8.1006e+00|   -5.247216|   -5.653734|   -5.816359|   -5.707437|   -5.408472|  -12.966926|    3.367351|
|         235|  8.0990e+00|   -5.237003|   -5.658991|   -5.811684|   -5.710260|   -5.395271|  -12.954582|    3.381178|
|         236|  8.0971e+00|   -5.227805|   -5.661684|   -5.808806|   -5.713540|   -5.383137|  -12.944530|    3.394642|
|         237|  8.0947e+00|   -5.220983|   -5.660988|   -5.808146|   -5.716618|   -5.373876|  -12.939987|    3.407412|
|         238|  8.0926e+00|   -5.217585|   -5.656866|   -5.809728|   -5.718892|   -5.368917|  -12.940922|    3.419183|
|         239|  8.0905e+00|   -5.217999|   -5.649944|   -5.813198|   -5.719909|   -5.368818|  -12.946451|    3.429680|
|         240|  8.0884e+00|   -5.222113|   -5.641300|   -5.817907|   -5.719460|   -5.373489|  -12.955064|    3.438668|
|         241|  8.0864e+00|   -5.229263|   -5.632268|   -5.823006|   -5.717605|   -5.382168|  -12.965073|    3.445952|
|         242|  8.0844e+00|   -5.238261|   -5.624126|   -5.827577|   -5.714663|   -5.393483|  -12.974739|    3.451386|
|         243|  8.0825e+00|   -5.247597|   -5.617829|   -5.830785|   -5.711139|   -5.405644|  -12.982344|    3.454872|
|         244|  8.0807e+00|   -5.255592|   -5.613896|   -5.832022|   -5.707594|   -5.416544|  -12.986589|    3.456363|
|         245|  8.0790e+00|   -5.260693|   -5.612485|   -5.831035|   -5.704562|   -5.424078|  -12.986803|    3.455862|
|         246|  8.0771e+00|   -5.261833|   -5.613465|   -5.827984|   -5.702482|   -5.426661|  -12.982937|    3.453425|
|         247|  8.0754e+00|   -5.258752|   -5.616492|   -5.823388|   -5.701646|   -5.423670|  -12.975581|    3.449151|
|         248|  8.0734e+00|   -5.251955|   -5.620805|   -5.818011|   -5.702124|   -5.415534|  -12.965792|    3.443188|
|         249|  8.0730e+00|   -5.242648|   -5.625289|   -5.812757|   -5.703753|   -5.403800|  -12.954489|    3.435723|
|         250|  8.0713e+00|   -5.232437|   -5.628723|   -5.808489|   -5.706168|   -5.390619|  -12.942096|    3.426976|
|         251|  8.0698e+00|   -5.222891|   -5.629942|   -5.805909|   -5.708865|   -5.378092|  -12.931370|    3.417196|
|         252|  8.0682e+00|   -5.215490|   -5.628214|   -5.805466|   -5.711323|   -5.368189|  -12.925769|    3.406649|
|         253|  8.0664e+00|   -5.211389|   -5.623450|   -5.807222|   -5.713084|   -5.362472|  -12.925463|    3.395616|
|         254|  8.0651e+00|   -5.211086|   -5.616128|   -5.810857|   -5.713824|   -5.361632|  -12.929662|    3.384381|
|         255|  8.0637e+00|   -5.214515|   -5.607104|   -5.815742|   -5.713393|   -5.365628|  -12.937126|    3.373230|
|         256|  8.0618e+00|   -5.221062|   -5.597477|   -5.821046|   -5.711843|   -5.373755|  -12.946320|    3.362440|
|         257|  8.0607e+00|   -5.229579|   -5.588317|   -5.825866|   -5.709427|   -5.384678|  -12.955450|    3.352274|
|         258|  8.0592e+00|   -5.238589|   -5.580438|   -5.829380|   -5.706543|   -5.396640|  -12.962854|    3.342974|
|         259|  8.0572e+00|   -5.246445|   -5.574290|   -5.830981|   -5.703629|   -5.407579|  -12.967227|    3.334756|
|         260|  8.0556e+00|   -5.251596|   -5.569999|   -5.830409|   -5.701107|   -5.415407|  -12.967843|    3.327807|
|         261|  8.0540e+00|   -5.252940|   -5.567440|   -5.827806|   -5.699314|   -5.418499|  -12.964565|    3.322279|
|         262|  8.0526e+00|   -5.250134|   -5.566321|   -5.823657|   -5.698465|   -5.416140|  -12.957849|    3.318286|
|         263|  8.0511e+00|   -5.243579|   -5.566035|   -5.818688|   -5.698588|   -5.408623|  -12.948670|    3.315906|
|         264|  8.0492e+00|   -5.234391|   -5.565742|   -5.813758|   -5.699518|   -5.397367|  -12.937993|    3.315173|
|         265|  8.0478e+00|   -5.224107|   -5.564568|   -5.809692|   -5.700934|   -5.384431|  -12.926417|    3.316084|
|         266|  8.0464e+00|   -5.214261|   -5.561729|   -5.807154|   -5.702433|   -5.371870|  -12.915381|    3.318595|
|         267|  8.0446e+00|   -5.206226|   -5.556755|   -5.806582|   -5.703611|   -5.361513|  -12.908560|    3.322621|
|         268|  8.0432e+00|   -5.201162|   -5.549612|   -5.808053|   -5.704140|   -5.354924|  -12.906453|    3.328046|
|         269|  8.0417e+00|   -5.199577|   -5.540638|   -5.811276|   -5.703798|   -5.352817|  -12.908472|    3.334717|
|         270|  8.0402e+00|   -5.201414|   -5.530431|   -5.815666|   -5.702500|   -5.355172|  -12.913603|    3.342453|
|         271|  8.0386e+00|   -5.206115|   -5.519734|   -5.820450|   -5.700305|   -5.361352|  -12.920450|    3.351051|
|         272|  8.0370e+00|   -5.212636|   -5.509290|   -5.824788|   -5.697426|   -5.370131|  -12.927435|    3.360291|
|         273|  8.0357e+00|   -5.219630|   -5.499670|   -5.827917|   -5.694176|   -5.379900|  -12.933098|    3.369941|
|         274|  8.0339e+00|   -5.225628|   -5.491209|   -5.829274|   -5.690898|   -5.388823|  -12.936293|    3.379763|
|         275|  8.0323e+00|   -5.229263|   -5.484001|   -5.828608|   -5.687920|   -5.395071|  -12.936358|    3.389517|
|         276|  8.0310e+00|   -5.229559|   -5.477966|   -5.826028|   -5.685492|   -5.397215|  -12.933114|    3.398970|
|         277|  8.0298e+00|   -5.226185|   -5.472911|   -5.821956|   -5.683768|   -5.394609|  -12.926912|    3.407901|
|         278|  8.0283e+00|   -5.219457|   -5.468487|   -5.817033|   -5.682765|   -5.387434|  -12.918519|    3.416103|
|         279|  8.0267e+00|   -5.210274|   -5.464185|   -5.812033|   -5.682337|   -5.376783|  -12.908715|    3.423395|
|         280|  8.0257e+00|   -5.199931|   -5.459493|   -5.807713|   -5.682238|   -5.364354|  -12.898118|    3.429618|
|         281|  8.0248e+00|   -5.189764|   -5.453952|   -5.804710|   -5.682173|   -5.351929|  -12.887208|    3.434643|
|         282|  8.0245e+00|   -5.180955|   -5.447275|   -5.803472|   -5.681852|   -5.341094|  -12.879204|    3.438373|
|         283|  8.0243e+00|   -5.174576|   -5.439414|   -5.804148|   -5.681052|   -5.333317|  -12.875263|    3.440744|
|         284|  8.0230e+00|   -5.171188|   -5.430536|   -5.806540|   -5.679630|   -5.329410|  -12.875137|    3.441726|
|         285|  8.0218e+00|   -5.170825|   -5.420982|   -5.810163|   -5.677534|   -5.329498|  -12.877966|    3.441322|
|         286|  8.0210e+00|   -5.173084|   -5.411170|   -5.814336|   -5.674802|   -5.333124|  -12.882667|    3.439571|
|         287|  8.0199e+00|   -5.177144|   -5.401558|   -5.818287|   -5.671579|   -5.339333|  -12.887924|    3.436541|
|         288|  8.0188e+00|   -5.181888|   -5.392526|   -5.821289|   -5.668087|   -5.346763|  -12.892454|    3.432331|
|         289|  8.0176e+00|   -5.186085|   -5.384324|   -5.822769|   -5.664570|   -5.353855|  -12.895229|    3.427069|
|         290|  8.0164e+00|   -5.188575|   -5.377052|   -5.822419|   -5.661267|   -5.359045|  -12.895583|    3.420902|
|         291|  8.0154e+00|   -5.188480|   -5.370687|   -5.820253|   -5.658362|   -5.361044|  -12.893242|    3.413999|
|         292|  8.0143e+00|   -5.185411|   -5.365128|   -5.816591|   -5.655963|   -5.359151|  -12.888293|    3.406541|
|         293|  8.0131e+00|   -5.179505|   -5.360192|   -5.811972|   -5.654097|   -5.353325|  -12.881235|    3.398716|
|         294|  8.0116e+00|   -5.171356|   -5.355577|   -5.807087|   -5.652663|   -5.344230|  -12.872701|    3.390720|
|         295|  8.0105e+00|   -5.161959|   -5.350962|   -5.802665|   -5.651505|   -5.333173|  -12.863280|    3.382746|
|         296|  8.0104e+00|   -5.152432|   -5.346043|   -5.799354|   -5.650438|   -5.321671|  -12.853253|    3.374985|
|         297|  8.0096e+00|   -5.143822|   -5.340600|   -5.797650|   -5.649272|   -5.311171|  -12.844999|    3.367616|
|         298|  8.0088e+00|   -5.137115|   -5.334543|   -5.797791|   -5.647870|   -5.303065|  -12.840186|    3.360807|
|         299|  8.0079e+00|   -5.132934|   -5.327918|   -5.799685|   -5.646130|   -5.298277|  -12.838864|    3.354709|
|         300|  8.0071e+00|   -5.131436|   -5.320888|   -5.802941|   -5.644003|   -5.297109|  -12.840424|    3.349452|
+-----------------------------------------------------------------------+
|        File Writing Summary       |              Filename             |
+-----------------------------------------------------------------------+
|SU2 binary restart                 |restart_flow.dat                   |
|Paraview                           |flow.vtu                           |
|Paraview surface                   |surface_flow.vtu                   |
+-----------------------------------------------------------------------+
+--------------------------------------------------------------------------------------------------------------------+
|  Inner_Iter|   Time(sec)|    rms[Rho]|   rms[RhoU]|   rms[RhoV]|   rms[RhoW]|   rms[RhoE]|     rms[nu]|          CD|
+--------------------------------------------------------------------------------------------------------------------+
|         301|  8.0865e+00|   -5.132375|   -5.313681|   -5.806952|   -5.641487|   -5.299295|  -12.843991|    3.345146|
|         302|  8.0862e+00|   -5.135138|   -5.306577|   -5.810985|   -5.638653|   -5.304119|  -12.848454|    3.341874|
|         303|  8.0851e+00|   -5.138811|   -5.299830|   -5.814311|   -5.635620|   -5.310428|  -12.852658|    3.339695|
|         304|  8.0835e+00|   -5.142353|   -5.293632|   -5.816322|   -5.632543|   -5.316863|  -12.855632|    3.338638|
|         305|  8.0822e+00|   -5.144752|   -5.288082|   -5.816637|   -5.629580|   -5.322029|  -12.856703|    3.338708|
|         306|  8.0809e+00|   -5.145190|   -5.283190|   -5.815180|   -5.626850|   -5.324702|  -12.855518|    3.339883|
|         307|  8.0793e+00|   -5.143212|   -5.278905|   -5.812179|   -5.624432|   -5.324109|  -12.851998|    3.342113|
|         308|  8.0777e+00|   -5.138800|   -5.275121|   -5.808099|   -5.622359|   -5.320032|  -12.846415|    3.345325|
|         309|  8.0767e+00|   -5.132316|   -5.271645|   -5.803575|   -5.620578|   -5.312830|  -12.839335|    3.349423|
|         310|  8.0749e+00|   -5.124510|   -5.268249|   -5.799319|   -5.619006|   -5.303517|  -12.831334|    3.354292|
|         311|  8.0733e+00|   -5.116319|   -5.264709|   -5.795991|   -5.617539|   -5.293405|  -12.822696|    3.359799|
|         312|  8.0719e+00|   -5.108674|   -5.260844|   -5.794110|   -5.616072|   -5.283828|  -12.814910|    3.365799|
|         313|  8.0705e+00|   -5.102454|   -5.256553|   -5.793976|   -5.614516|   -5.276063|  -12.809918|    3.372138|
|         314|  8.0690e+00|   -5.098317|   -5.251827|   -5.795567|   -5.612804|   -5.271097|  -12.807987|    3.378657|
|         315|  8.0676e+00|   -5.096491|   -5.246745|   -5.798561|   -5.610885|   -5.269327|  -12.808733|    3.385193|
|         316|  8.0661e+00|   -5.096840|   -5.241440|   -5.802403|   -5.608730|   -5.270625|  -12.811480|    3.391590|
|         317|  8.0647e+00|   -5.098894|   -5.236099|   -5.806402|   -5.606354|   -5.274425|  -12.815262|    3.397694|
|         318|  8.0633e+00|   -5.101901|   -5.230907|   -5.809847|   -5.603811|   -5.279752|  -12.819066|    3.403363|
|         319|  8.0619e+00|   -5.104979|   -5.226017|   -5.812123|   -5.601189|   -5.285425|  -12.822005|    3.408469|
|         320|  8.0607e+00|   -5.107249|   -5.221527|   -5.812821|   -5.598583|   -5.290213|  -12.823433|    3.412900|
|         321|  8.0593e+00|   -5.107972|   -5.217469|   -5.811811|   -5.596072|   -5.293011|  -12.822975|    3.416562|
|         322|  8.0580e+00|   -5.106687|   -5.213824|   -5.809250|   -5.593714|   -5.293059|  -12.820486|    3.419381|
|         323|  8.0568e+00|   -5.103296|   -5.210538|   -5.805538|   -5.591546|   -5.290076|  -12.816116|    3.421306|
|         324|  8.0558e+00|   -5.098015|   -5.207492|   -5.801245|   -5.589555|   -5.284240|  -12.810335|    3.422310|
|         325|  8.0545e+00|   -5.091409|   -5.204531|   -5.797034|   -5.587710|   -5.276307|  -12.803668|    3.422385|
|         326|  8.0531e+00|   -5.084241|   -5.201490|   -5.793540|   -5.585970|   -5.267365|  -12.796460|    3.421549|
|         327|  8.0517e+00|   -5.077315|   -5.198230|   -5.791285|   -5.584286|   -5.258576|  -12.789306|    3.419842|
|         328|  8.0502e+00|   -5.071377|   -5.194658|   -5.790606|   -5.582610|   -5.251033|  -12.784187|    3.417322|
|         329|  8.0489e+00|   -5.067080|   -5.190749|   -5.791558|   -5.580900|   -5.245718|  -12.781696|    3.414067|
|         330|  8.0477e+00|   -5.064716|   -5.186541|   -5.793902|   -5.579114|   -5.243112|  -12.781654|    3.410172|
|         331|  8.0464e+00|   -5.064252|   -5.182124|   -5.797163|   -5.577214|   -5.243230|  -12.783578|    3.405747|
|         332|  8.0452e+00|   -5.065360|   -5.177626|   -5.800725|   -5.575185|   -5.245665|  -12.786678|    3.400910|
|         333|  8.0440e+00|   -5.067461|   -5.173197|   -5.803925|   -5.573044|   -5.249663|  -12.790076|    3.395787|
|         334|  8.0427e+00|   -5.069831|   -5.168966|   -5.806172|   -5.570833|   -5.254242|  -12.792968|    3.390510|
|         335|  8.0416e+00|   -5.071726|   -5.165028|   -5.807037|   -5.568606|   -5.258355|  -12.794734|    3.385210|
|         336|  8.0399e+00|   -5.072494|   -5.161432|   -5.806334|   -5.566414|   -5.261034|  -12.794975|    3.380017|
|         337|  8.0386e+00|   -5.071682|   -5.158183|   -5.804134|   -5.564298|   -5.261555|  -12.793485|    3.375058|
|         338|  8.0374e+00|   -5.069125|   -5.155256|   -5.800745|   -5.562295|   -5.259579|  -12.790301|    3.370449|
|         339|  8.0363e+00|   -5.064920|   -5.152587|   -5.796640|   -5.560420|   -5.255124|  -12.785765|    3.366297|
|         340|  8.0350e+00|   -5.059443|   -5.150068|   -5.792409|   -5.558677|   -5.248666|  -12.780315|    3.362696|
|         341|  8.0336e+00|   -5.053285|   -5.147580|   -5.788649|   -5.557069|   -5.241032|  -12.774325|    3.359727|
|         342|  8.0327e+00|   -5.047113|   -5.145006|   -5.785886|   -5.555584|   -5.233185|  -12.767982|    3.357451|
|         343|  8.0315e+00|   -5.041568|   -5.142259|   -5.784503|   -5.554200|   -5.226069|  -12.762780|    3.355914|
|         344|  8.0301e+00|   -5.037262|   -5.139298|   -5.784659|   -5.552894|   -5.220606|  -12.759815|    3.355144|
|         345|  8.0291e+00|   -5.034576|   -5.136127|   -5.786230|   -5.551628|   -5.217405|  -12.759157|    3.355148|
|         346|  8.0277e+00|   -5.033587|   -5.132800|   -5.788854|   -5.550360|   -5.216643|  -12.760479|    3.355916|
|         347|  8.0263e+00|   -5.034113|   -5.129401|   -5.792002|   -5.549049|   -5.218103|  -12.763193|    3.357419|
|         348|  8.0253e+00|   -5.035743|   -5.126044|   -5.795071|   -5.547682|   -5.221263|  -12.766531|    3.359612|
|         349|  8.0237e+00|   -5.037891|   -5.122838|   -5.797475|   -5.546260|   -5.225316|  -12.769726|    3.362433|
|         350|  8.0223e+00|   -5.039915|   -5.119873|   -5.798750|   -5.544805|   -5.229357|  -12.772150|    3.365806|
|         351|  8.0209e+00|   -5.041211|   -5.117202|   -5.798627|   -5.543341|   -5.232499|  -12.773351|    3.369641|
|         352|  8.0194e+00|   -5.041310|   -5.114844|   -5.797068|   -5.541894|   -5.234009|  -12.773045|    3.373841|
|         353|  8.0181e+00|   -5.039960|   -5.112789|   -5.794270|   -5.540492|   -5.233442|  -12.771145|    3.378300|
|         354|  8.0167e+00|   -5.037144|   -5.111000|   -5.790604|   -5.539170|   -5.230671|  -12.767848|    3.382907|
|         355|  8.0153e+00|   -5.033072|   -5.109398|   -5.786584|   -5.537955|   -5.225912|  -12.763519|    3.387551|
|         356|  8.0142e+00|   -5.028183|   -5.107885|   -5.782780|   -5.536878|   -5.219773|  -12.758530|    3.392119|
|         357|  8.0131e+00|   -5.023036|   -5.106357|   -5.779732|   -5.535953|   -5.213059|  -12.753061|    3.396503|
|         358|  8.0118e+00|   -5.018213|   -5.104728|   -5.777873|   -5.535181|   -5.206637|  -12.747931|    3.400601|
|         359|  8.0110e+00|   -5.014283|   -5.102940|   -5.777462|   -5.534548|   -5.201368|  -12.744631|    3.404320|
|         360|  8.0098e+00|   -5.011710|   -5.100976|   -5.778497|   -5.534021|   -5.197988|  -12.743516|    3.407576|
|         361|  8.0085e+00|   -5.010675|   -5.098861|   -5.780723|   -5.533551|   -5.196822|  -12.744417|    3.410298|
|         362|  8.0077e+00|   -5.011118|   -5.096651|   -5.783691|   -5.533082|   -5.197836|  -12.746904|    3.412430|
|         363|  8.0067e+00|   -5.012753|   -5.094433|   -5.786845|   -5.532572|   -5.200667|  -12.750299|    3.413930|
|         364|  8.0058e+00|   -5.015101|   -5.092302|   -5.789600|   -5.531995|   -5.204663|  -12.753864|    3.414772|
|         365|  8.0047e+00|   -5.017585|   -5.090342|   -5.791450|   -5.531340|   -5.209007|  -12.756941|    3.414945|
|         366|  8.0035e+00|   -5.019627|   -5.088615|   -5.792046|   -5.530614|   -5.212851|  -12.759021|    3.414457|
|         367|  8.0023e+00|   -5.020731|   -5.087149|   -5.791251|   -5.529831|   -5.215435|  -12.759752|    3.413328|
|         368|  8.0015e+00|   -5.020573|   -5.085945|   -5.789159|   -5.529014|   -5.216217|  -12.758960|    3.411596|
|         369|  8.0004e+00|   -5.019044|   -5.084984|   -5.786061|   -5.528208|   -5.214951|  -12.756703|    3.409310|
|         370|  7.9990e+00|   -5.016237|   -5.084209|   -5.782397|   -5.527462|   -5.211679|  -12.753292|    3.406535|
|         371|  7.9980e+00|   -5.012474|   -5.083537|   -5.778712|   -5.526827|   -5.206831|  -12.749090|    3.403342|
|         372|  7.9971e+00|   -5.008236|   -5.082874|   -5.775549|   -5.526340|   -5.201098|  -12.744373|    3.399816|
|         373|  7.9961e+00|   -5.004069|   -5.082133|   -5.773381|   -5.526023|   -5.195293|  -12.739454|    3.396043|
|         374|  7.9953e+00|   -5.000507|   -5.081249|   -5.772538|   -5.525869|   -5.190232|  -12.735841|    3.392117|
|         375|  7.9944e+00|   -4.998062|   -5.080190|   -5.773122|   -5.525856|   -5.186712|  -12.734234|    3.388132|
|         376|  7.9933e+00|   -4.997008|   -5.078960|   -5.774977|   -5.525932|   -5.185199|  -12.734637|    3.384183|
|         377|  7.9922e+00|   -4.997384|   -5.077598|   -5.777731|   -5.526034|   -5.185802|  -12.736756|    3.380361|
|         378|  7.9910e+00|   -4.998998|   -5.076169|   -5.780877|   -5.526097|   -5.188285|  -12.740008|    3.376753|
|         379|  7.9898e+00|   -5.001467|   -5.074761|   -5.783848|   -5.526075|   -5.192140|  -12.743692|    3.373441|
|         380|  7.9887e+00|   -5.004267|   -5.073454|   -5.786115|   -5.525937|   -5.196622|  -12.747137|    3.370497|
|         381|  7.9878e+00|   -5.006843|   -5.072317|   -5.787276|   -5.525670|   -5.200926|  -12.749790|    3.367984|
|         382|  7.9867e+00|   -5.008686|   -5.071390|   -5.787114|   -5.525282|   -5.204278|  -12.751241|    3.365953|
|         383|  7.9856e+00|   -5.009412|   -5.070685|   -5.785632|   -5.524791|   -5.206066|  -12.751257|    3.364444|
|         384|  7.9845e+00|   -5.008838|   -5.070194|   -5.783044|   -5.524245|   -5.205948|  -12.749796|    3.363483|
|         385|  7.9833e+00|   -5.006973|   -5.069882|   -5.779717|   -5.523707|   -5.203843|  -12.747086|    3.363085|
|         386|  7.9821e+00|   -5.004037|   -5.069680|   -5.776147|   -5.523245|   -5.200016|  -12.743475|    3.363249|
|         387|  7.9807e+00|   -5.000435|   -5.069507|   -5.772864|   -5.522918|   -5.195045|  -12.739295|    3.363963|
|         388|  7.9795e+00|   -4.996670|   -5.069275|   -5.770358|   -5.522766|   -5.189668|  -12.734690|    3.365200|
|         389|  7.9784e+00|   -4.993257|   -5.068914|   -5.769010|   -5.522797|   -5.184663|  -12.730668|    3.366923|
|         390|  7.9769e+00|   -4.990705|   -5.068380|   -5.769021|   -5.522998|   -5.180818|  -12.728391|    3.369084|
|         391|  7.9758e+00|   -4.989389|   -5.067659|   -5.770337|   -5.523322|   -5.178742|  -12.728080|    3.371625|
|         392|  7.9747e+00|   -4.989435|   -5.066775|   -5.772685|   -5.523706|   -5.178677|  -12.729563|    3.374480|
|         393|  7.9734e+00|   -4.990756|   -5.065778|   -5.775623|   -5.524070|   -5.180534|  -12.732399|    3.377575|
|         394|  7.9723e+00|   -4.993058|   -5.064743|   -5.778625|   -5.524355|   -5.183938|  -12.735940|    3.380835|
|         395|  7.9709e+00|   -4.995888|   -5.063754|   -5.781158|   -5.524509|   -5.188253|  -12.739515|    3.384180|
|         396|  7.9697e+00|   -4.998720|   -5.062881|   -5.782779|   -5.524505|   -5.192722|  -12.742540|    3.387530|
|         397|  7.9686e+00|   -5.001036|   -5.062178|   -5.783200|   -5.524336|   -5.196578|  -12.744556|    3.390805|
|         398|  7.9674e+00|   -5.002410|   -5.061669|   -5.782330|   -5.524015|   -5.199154|  -12.745257|    3.393930|
|         399|  7.9662e+00|   -5.002580|   -5.061355|   -5.780289|   -5.523583|   -5.200004|  -12.744523|    3.396833|
|         400|  7.9652e+00|   -5.001475|   -5.061220|   -5.777361|   -5.523111|   -5.198945|  -12.742463|    3.399451|
|         401|  7.9641e+00|   -4.999211|   -5.061212|   -5.773970|   -5.522679|   -5.196066|  -12.739384|    3.401727|
|         402|  7.9630e+00|   -4.996107|   -5.061259|   -5.770618|   -5.522365|   -5.191803|  -12.735620|    3.403614|
|         403|  7.9621e+00|   -4.992611|   -5.061279|   -5.767800|   -5.522228|   -5.186800|  -12.731387|    3.405074|
|         404|  7.9614e+00|   -4.989219|   -5.061196|   -5.765942|   -5.522295|   -5.181802|  -12.727049|    3.406081|
|         405|  7.9605e+00|   -4.986422|   -5.060956|   -5.765334|   -5.522562|   -5.177555|  -12.724016|    3.406619|
|         406|  7.9594e+00|   -4.984677|   -5.060530|   -5.766048|   -5.522998|   -5.174784|  -12.722856|    3.406685|
|         407|  7.9584e+00|   -4.984214|   -5.059926|   -5.767920|   -5.523537|   -5.173885|  -12.723552|    3.406286|
|         408|  7.9570e+00|   -4.985052|   -5.059181|   -5.770594|   -5.524101|   -5.174938|  -12.725816|    3.405441|
|         409|  7.9559e+00|   -4.986999|   -5.058355|   -5.773596|   -5.524607|   -5.177701|  -12.729093|    3.404179|
|         410|  7.9547e+00|   -4.989687|   -5.057530|   -5.776404|   -5.524993|   -5.181682|  -12.732729|    3.402536|
|         411|  7.9537e+00|   -4.992625|   -5.056782|   -5.778537|   -5.525210|   -5.186178|  -12.736105|    3.400561|
|         412|  7.9527e+00|   -4.995297|   -5.056174|   -5.779633|   -5.525237|   -5.190436|  -12.738709|    3.398307|
|         413|  7.9516e+00|   -4.997238|   -5.055742|   -5.779502|   -5.525076|   -5.193748|  -12.740161|    3.395834|
|         414|  7.9506e+00|   -4.998105|   -5.055499|   -5.778155|   -5.524756|   -5.195558|  -12.740258|    3.393204|
|         415|  7.9494e+00|   -4.997743|   -5.055440|   -5.775786|   -5.524345|   -5.195567|  -12.738981|    3.390484|
|         416|  7.9483e+00|   -4.996168|   -5.055533|   -5.772738|   -5.523932|   -5.193711|  -12.736546|    3.387742|
|         417|  7.9471e+00|   -4.993596|   -5.055715|   -5.769466|   -5.523610|   -5.190248|  -12.733268|    3.385043|
|         418|  7.9462e+00|   -4.990409|   -5.055910|   -5.766466|   -5.523454|   -5.185721|  -12.729450|    3.382453|
|         419|  7.9453e+00|   -4.987077|   -5.056039|   -5.764200|   -5.523513|   -5.180823|  -12.725195|    3.380031|
|         420|  7.9443e+00|   -4.984083|   -5.056039|   -5.763033|   -5.523799|   -5.176281|  -12.721539|    3.377833|
|         421|  7.9433e+00|   -4.981914|   -5.055868|   -5.763161|   -5.524292|   -5.172855|  -12.719546|    3.375909|
|         422|  7.9425e+00|   -4.980923|   -5.055516|   -5.764543|   -5.524935|   -5.171119|  -12.719436|    3.374302|
|         423|  7.9420e+00|   -4.981232|   -5.055006|   -5.766923|   -5.525651|   -5.171314|  -12.721056|    3.373045|
|         424|  7.9409e+00|   -4.982760|   -5.054383|   -5.769888|   -5.526346|   -5.173359|  -12.723992|    3.372164|
|         425|  7.9395e+00|   -4.985229|   -5.053721|   -5.772942|   -5.526941|   -5.176898|  -12.727628|    3.371674|
|         426|  7.9385e+00|   -4.988204|   -5.053100|   -5.775579|   -5.527370|   -5.181320|  -12.731327|    3.371583|
|         427|  7.9375e+00|   -4.991179|   -5.052587|   -5.777370|   -5.527592|   -5.185895|  -12.734523|    3.371887|
|         428|  7.9368e+00|   -4.993663|   -5.052235|   -5.778031|   -5.527597|   -5.189890|  -12.736766|    3.372574|
|         429|  7.9358e+00|   -4.995245|   -5.052068|   -5.777460|   -5.527401|   -5.192661|  -12.737760|    3.373623|
|         430|  7.9347e+00|   -4.995669|   -5.052089|   -5.775751|   -5.527057|   -5.193774|  -12.737383|    3.375004|
|         431|  7.9340e+00|   -4.994866|   -5.052284|   -5.773159|   -5.526658|   -5.193042|  -12.735717|    3.376681|
|         432|  7.9330e+00|   -4.992936|   -5.052605|   -5.770077|   -5.526305|   -5.190535|  -12.733043|    3.378609|
|         433|  7.9321e+00|   -4.990179|   -5.052986|   -5.766980|   -5.526093|   -5.186659|  -12.729681|    3.380740|
|         434|  7.9311e+00|   -4.987020|   -5.053346|   -5.764353|   -5.526089|   -5.182027|  -12.725848|    3.383021|
|         435|  7.9302e+00|   -4.983940|   -5.053614|   -5.762619|   -5.526326|   -5.177361|  -12.721841|    3.385395|
|         436|  7.9294e+00|   -4.981410|   -5.053735|   -5.762077|   -5.526798|   -5.173379|  -12.719036|    3.387805|
|         437|  7.9284e+00|   -4.979886|   -5.053681|   -5.762824|   -5.527467|   -5.170804|  -12.718027|    3.390193|
|         438|  7.9276e+00|   -4.979610|   -5.053456|   -5.764723|   -5.528257|   -5.170050|  -12.718838|    3.392504|
|         439|  7.9272e+00|   -4.980616|   -5.053091|   -5.767447|   -5.529076|   -5.171219|  -12.721227|    3.394682|
|         440|  7.9263e+00|   -4.982735|   -5.052645|   -5.770547|   -5.529826|   -5.174100|  -12.724667|    3.396679|
|         441|  7.9255e+00|   -4.985617|   -5.052195|   -5.773519|   -5.530427|   -5.178227|  -12.728529|    3.398450|
|         442|  7.9248e+00|   -4.988791|   -5.051816|   -5.775886|   -5.530821|   -5.182926|  -12.732205|    3.399955|
|         443|  7.9238e+00|   -4.991753|   -5.051572|   -5.777278|   -5.530978|   -5.187463|  -12.735178|    3.401163|
|         444|  7.9230e+00|   -4.994044|   -5.051501|   -5.777484|   -5.530902|   -5.191141|  -12.737060|    3.402049|
|         445|  7.9221e+00|   -4.995312|   -5.051619|   -5.776481|   -5.530628|   -5.193392|  -12.737633|    3.402596|
|         446|  7.9212e+00|   -4.995381|   -5.051925|   -5.774430|   -5.530235|   -5.193897|  -12.736848|    3.402795|
|         447|  7.9205e+00|   -4.994249|   -5.052392|   -5.771637|   -5.529831|   -5.192560|  -12.734887|    3.402646|
|         448|  7.9196e+00|   -4.992095|   -5.052964|   -5.768529|   -5.529522|   -5.189586|  -12.732056|    3.402158|
|         449|  7.9187e+00|   -4.989273|   -5.053569|   -5.765583|   -5.529396|   -5.185471|  -12.728664|    3.401346|
|         450|  7.9178e+00|   -4.986231|   -5.054128|   -5.763263|   -5.529508|   -5.180875|  -12.724804|    3.400233|
+-----------------------------------------------------------------------+
|        File Writing Summary       |              Filename             |
+-----------------------------------------------------------------------+
|SU2 binary restart                 |restart_flow.dat                   |
|Paraview                           |flow.vtu                           |
|Paraview surface                   |surface_flow.vtu                   |
+-----------------------------------------------------------------------+
+--------------------------------------------------------------------------------------------------------------------+
|  Inner_Iter|   Time(sec)|    rms[Rho]|   rms[RhoU]|   rms[RhoV]|   rms[RhoW]|   rms[RhoE]|     rms[nu]|          CD|
+--------------------------------------------------------------------------------------------------------------------+
|         451|  7.9708e+00|   -4.983439|   -5.054575|   -5.761942|   -5.529873|   -5.176503|  -12.721214|    3.398848|
|         452|  7.9703e+00|   -4.981370|   -5.054862|   -5.761857|   -5.530471|   -5.173084|  -12.719128|    3.397229|
|         453|  7.9694e+00|   -4.980414|   -5.054973|   -5.763019|   -5.531244|   -5.171250|  -12.718875|    3.395414|
|         454|  7.9685e+00|   -4.980735|   -5.054919|   -5.765221|   -5.532106|   -5.171297|  -12.720375|    3.393450|
|         455|  7.9677e+00|   -4.982298|   -5.054740|   -5.768096|   -5.532955|   -5.173217|  -12.723289|    3.391384|
|         456|  7.9666e+00|   -4.984873|   -5.054502|   -5.771177|   -5.533699|   -5.176717|  -12.727046|    3.389264|
|         457|  7.9657e+00|   -4.988061|   -5.054285|   -5.773973|   -5.534261|   -5.181247|  -12.731016|    3.387140|
|         458|  7.9644e+00|   -4.991376|   -5.054161|   -5.776044|   -5.534593|   -5.186111|  -12.734626|    3.385062|
|         459|  7.9631e+00|   -4.994325|   -5.054185|   -5.777077|   -5.534679|   -5.190584|  -12.737404|    3.383076|
|         460|  7.9621e+00|   -4.996478|   -5.054391|   -5.776923|   -5.534534|   -5.194005|  -12.739014|    3.381226|
|         461|  7.9608e+00|   -4.997533|   -5.054786|   -5.775613|   -5.534209|   -5.195878|  -12.739288|    3.379553|
|         462|  7.9595e+00|   -4.997371|   -5.055366|   -5.773349|   -5.533800|   -5.195956|  -12.738236|    3.378093|
|         463|  7.9580e+00|   -4.996035|   -5.056094|   -5.770464|   -5.533416|   -5.194212|  -12.736090|    3.376876|
|         464|  7.9564e+00|   -4.993760|   -5.056908|   -5.767394|   -5.533161|   -5.190943|  -12.733146|    3.375926|
|         465|  7.9555e+00|   -4.990931|   -5.057729|   -5.764606|   -5.533114|   -5.186698|  -12.729665|    3.375261|
|         466|  7.9548e+00|   -4.988010|   -5.058481|   -5.762535|   -5.533321|   -5.182159|  -12.725689|    3.374892|
|         467|  7.9535e+00|   -4.985461|   -5.059099|   -5.761526|   -5.533784|   -5.178025|  -12.722440|    3.374823|
|         468|  7.9522e+00|   -4.983765|   -5.059543|   -5.761767|   -5.534477|   -5.175051|  -12.720859|    3.375051|
|         469|  7.9512e+00|   -4.983258|   -5.059802|   -5.763217|   -5.535333|   -5.173784|  -12.721141|    3.375566|
|         470|  7.9500e+00|   -4.984057|   -5.059897|   -5.765635|   -5.536261|   -5.174453|  -12.723144|    3.376351|
|         471|  7.9487e+00|   -4.986078|   -5.059873|   -5.768634|   -5.537156|   -5.176974|  -12.726456|    3.377385|
|         472|  7.9477e+00|   -4.989042|   -5.059806|   -5.771742|   -5.537926|   -5.180989|  -12.730472|    3.378638|
|         473|  7.9466e+00|   -4.992513|   -5.059775|   -5.774478|   -5.538497|   -5.185888|  -12.734567|    3.380079|
|         474|  7.9456e+00|   -4.995988|   -5.059851|   -5.776425|   -5.538823|   -5.190950|  -12.738175|    3.381671|
|         475|  7.9447e+00|   -4.998977|   -5.060087|   -5.777296|   -5.538893|   -5.195451|  -12.740847|    3.383375|
|         476|  7.9434e+00|   -5.001063|   -5.060509|   -5.776966|   -5.538728|   -5.198743|  -12.742270|    3.385149|
|         477|  7.9422e+00|   -5.001979|   -5.061122|   -5.775496|   -5.538391|   -5.200374|  -12.742301|    3.386950|
|         478|  7.9411e+00|   -5.001642|   -5.061916|   -5.773104|   -5.537990|   -5.200135|  -12.740995|    3.388736|
|         479|  7.9400e+00|   -5.000132|   -5.062845|   -5.770142|   -5.537638|   -5.198059|  -12.738620|    3.390466|
|         480|  7.9391e+00|   -4.997730|   -5.063838|   -5.767062|   -5.537440|   -5.194519|  -12.735485|    3.392099|
|         481|  7.9380e+00|   -4.994850|   -5.064815|   -5.764338|   -5.537473|   -5.190108|  -12.731825|    3.393600|
|         482|  7.9368e+00|   -4.991975|   -5.065697|   -5.762404|   -5.537777|   -5.185547|  -12.727779|    3.394935|
|         483|  7.9358e+00|   -4.989573|   -5.066422|   -5.761594|   -5.538344|   -5.181549|  -12.724804|    3.396074|
|         484|  7.9348e+00|   -4.988132|   -5.066955|   -5.762067|   -5.539139|   -5.178877|  -12.723608|    3.396996|
|         485|  7.9336e+00|   -4.987945|   -5.067291|   -5.763745|   -5.540082|   -5.178024|  -12.724291|    3.397680|
|         486|  7.9323e+00|   -4.989098|   -5.067457|   -5.766356|   -5.541072|   -5.179164|  -12.726669|    3.398116|
|         487|  7.9312e+00|   -4.991465|   -5.067506|   -5.769485|   -5.541996|   -5.182153|  -12.730263|    3.398296|
|         488|  7.9299e+00|   -4.994723|   -5.067520|   -5.772646|   -5.542762|   -5.186566|  -12.734442|    3.398219|
|         489|  7.9288e+00|   -4.998413|   -5.067582|   -5.775355|   -5.543303|   -5.191757|  -12.738582|    3.397893|
|         490|  7.9278e+00|   -5.002017|   -5.067762|   -5.777205|   -5.543586|   -5.196986|  -12.742137|    3.397327|
|         491|  7.9266e+00|   -5.005046|   -5.068109|   -5.777928|   -5.543611|   -5.201526|  -12.744688|    3.396538|
|         492|  7.9253e+00|   -5.007095|   -5.068648|   -5.777429|   -5.543414|   -5.204739|  -12.745954|    3.395549|
|         493|  7.9241e+00|   -5.007916|   -5.069381|   -5.775802|   -5.543069|   -5.206205|  -12.745823|    3.394385|
|         494|  7.9231e+00|   -5.007450|   -5.070295|   -5.773290|   -5.542686|   -5.205741|  -12.744391|    3.393075|
|         495|  7.9222e+00|   -5.005802|   -5.071338|   -5.770266|   -5.542372|   -5.203427|  -12.741940|    3.391653|
|         496|  7.9211e+00|   -5.003280|   -5.072437|   -5.767187|   -5.542220|   -5.199677|  -12.738762|    3.390153|
|         497|  7.9201e+00|   -5.000317|   -5.073508|   -5.764518|   -5.542293|   -5.195114|  -12.735015|    3.388612|
|         498|  7.9189e+00|   -4.997399|   -5.074471|   -5.762676|   -5.542617|   -5.190466|  -12.730891|    3.387064|
|         499|  7.9177e+00|   -4.995005|   -5.075261|   -5.761972|   -5.543178|   -5.186454|  -12.727961|    3.385547|
|         500|  7.9168e+00|   -4.993624|   -5.075847|   -5.762547|   -5.543938|   -5.183845|  -12.726833|    3.384094|
|         501|  7.9156e+00|   -4.993543|   -5.076223|   -5.764307|   -5.544825|   -5.183118|  -12.727593|    3.382739|
|         502|  7.9158e+00|   -4.994834|   -5.076419|   -5.766977|   -5.545744|   -5.184425|  -12.730050|    3.381512|
|         503|  7.9159e+00|   -4.997364|   -5.076491|   -5.770147|   -5.546595|   -5.187610|  -12.733728|    3.380438|
|         504|  7.9149e+00|   -5.000793|   -5.076524|   -5.773345|   -5.547299|   -5.192223|  -12.737996|    3.379540|
|         505|  7.9138e+00|   -5.004647|   -5.076604|   -5.776104|   -5.547798|   -5.197611|  -12.742243|    3.378837|
|         506|  7.9129e+00|   -5.008402|   -5.076804|   -5.778026|   -5.548059|   -5.203026|  -12.745927|    3.378342|
|         507|  7.9120e+00|   -5.011555|   -5.077174|   -5.778844|   -5.548081|   -5.207730|  -12.748617|    3.378063|
|         508|  7.9111e+00|   -5.013693|   -5.077740|   -5.778452|   -5.547891|   -5.211076|  -12.750007|    3.378003|
|         509|  7.9102e+00|   -5.014559|   -5.078505|   -5.776919|   -5.547549|   -5.212626|  -12.749941|    3.378160|
|         510|  7.9092e+00|   -5.014086|   -5.079457|   -5.774461|   -5.547158|   -5.212178|  -12.748500|    3.378528|
|         511|  7.9082e+00|   -5.012381|   -5.080544|   -5.771429|   -5.546820|   -5.209810|  -12.745956|    3.379095|
|         512|  7.9072e+00|   -5.009755|   -5.081687|   -5.768265|   -5.546628|   -5.205935|  -12.742613|    3.379843|
|         513|  7.9063e+00|   -5.006650|   -5.082798|   -5.765442|   -5.546657|   -5.201186|  -12.738667|    3.380755|
|         514|  7.9054e+00|   -5.003570|   -5.083794|   -5.763393|   -5.546945|   -5.196312|  -12.734308|    3.381804|
|         515|  7.9047e+00|   -5.001003|   -5.084606|   -5.762466|   -5.547490|   -5.192052|  -12.731169|    3.382965|
|         516|  7.9039e+00|   -4.999458|   -5.085198|   -5.762842|   -5.548263|   -5.189200|  -12.729885|    3.384210|
|         517|  7.9030e+00|   -4.999244|   -5.085567|   -5.764466|   -5.549192|   -5.188270|  -12.730558|    3.385506|
|         518|  7.9021e+00|   -5.000452|   -5.085740|   -5.767088|   -5.550179|   -5.189438|  -12.733007|    3.386824|
|         519|  7.9011e+00|   -5.002966|   -5.085775|   -5.770313|   -5.551114|   -5.192571|  -12.736749|    3.388132|
|         520|  7.9002e+00|   -5.006448|   -5.085762|   -5.773663|   -5.551903|   -5.197223|  -12.741136|    3.389399|
|         521|  7.8996e+00|   -5.010425|   -5.085795|   -5.776646|   -5.552483|   -5.202747|  -12.745528|    3.390595|
|         522|  7.8985e+00|   -5.014364|   -5.085950|   -5.778832|   -5.552818|   -5.208391|  -12.749362|    3.391695|
|         523|  7.8975e+00|   -5.017750|   -5.086283|   -5.779909|   -5.552909|   -5.213399|  -12.752207|    3.392672|
|         524|  7.8965e+00|   -5.020147|   -5.086820|   -5.779733|   -5.552790|   -5.217096|  -12.753757|    3.393506|
|         525|  7.8957e+00|   -5.021264|   -5.087568|   -5.778344|   -5.552522|   -5.219001|  -12.753859|    3.394178|
|         526|  7.8947e+00|   -5.021006|   -5.088519|   -5.775951|   -5.552205|   -5.218872|  -12.752581|    3.394675|
|         527|  7.8938e+00|   -5.019449|   -5.089622|   -5.772893|   -5.551936|   -5.216739|  -12.750201|    3.394987|
|         528|  7.8930e+00|   -5.016875|   -5.090801|   -5.769616|   -5.551799|   -5.212971|  -12.747006|    3.395109|
|         529|  7.8921e+00|   -5.013708|   -5.091964|   -5.766593|   -5.551848|   -5.208172|  -12.743181|    3.395040|
|         530|  7.8912e+00|   -5.010452|   -5.093024|   -5.764271|   -5.552113|   -5.203085|  -12.738641|    3.394784|
|         531|  7.8902e+00|   -5.007593|   -5.093905|   -5.763008|   -5.552579|   -5.198438|  -12.735015|    3.394349|
|         532|  7.8891e+00|   -5.005666|   -5.094561|   -5.763029|   -5.553216|   -5.195054|  -12.733119|    3.393746|
|         533|  7.8882e+00|   -5.005040|   -5.094980|   -5.764332|   -5.553964|   -5.193530|  -12.733153|    3.392992|
|         534|  7.8871e+00|   -5.005862|   -5.095183|   -5.766709|   -5.554740|   -5.194123|  -12.735029|    3.392106|
|         535|  7.8862e+00|   -5.008078|   -5.095218|   -5.769806|   -5.555455|   -5.196788|  -12.738356|    3.391109|
|         536|  7.8852e+00|   -5.011398|   -5.095172|   -5.773174|   -5.556035|   -5.201147|  -12.742546|    3.390026|
|         537|  7.8843e+00|   -5.015377|   -5.095143|   -5.776341|   -5.556437|   -5.206607|  -12.746984|    3.388882|
|         538|  7.8834e+00|   -5.019487|   -5.095214|   -5.778867|   -5.556639|   -5.212438|  -12.751111|    3.387703|
[...]
|        9245|  6.8293e+00|   -5.385948|   -5.625776|   -6.008576|   -5.939273|   -5.726985|   -8.321665|    2.296163|
|        9246|  6.8293e+00|   -5.385119|   -5.625042|   -6.008282|   -5.938513|   -5.726194|   -8.321447|    2.296387|
|        9247|  6.8293e+00|   -5.384271|   -5.624292|   -6.007988|   -5.937749|   -5.725384|   -8.321234|    2.296611|
|        9248|  6.8294e+00|   -5.383398|   -5.623520|   -6.007693|   -5.936990|   -5.724550|   -8.321025|    2.296836|
|        9249|  6.8294e+00|   -5.382516|   -5.622735|   -6.007396|   -5.936242|   -5.723710|   -8.320819|    2.297062|
|        9250|  6.8294e+00|   -5.381639|   -5.621940|   -6.007094|   -5.935512|   -5.722878|   -8.320619|    2.297288|
|        9251|  6.8294e+00|   -5.380773|   -5.621137|   -6.006791|   -5.934796|   -5.722059|   -8.320422|    2.297514|
|        9252|  6.8295e+00|   -5.379901|   -5.620319|   -6.006481|   -5.934079|   -5.721234|   -8.320229|    2.297741|
|        9253|  6.8295e+00|   -5.379017|   -5.619483|   -6.006166|   -5.933362|   -5.720397|   -8.320041|    2.297968|
|        9254|  6.8295e+00|   -5.378149|   -5.618639|   -6.005851|   -5.932653|   -5.719579|   -8.319856|    2.298196|
|        9255|  6.8295e+00|   -5.377298|   -5.617786|   -6.005538|   -5.931950|   -5.718779|   -8.319676|    2.298424|
|        9256|  6.8296e+00|   -5.376464|   -5.616930|   -6.005224|   -5.931250|   -5.717996|   -8.319500|    2.298653|
|        9257|  6.8296e+00|   -5.375628|   -5.616063|   -6.004906|   -5.930546|   -5.717208|   -8.319328|    2.298882|
|        9258|  6.8296e+00|   -5.374792|   -5.615186|   -6.004584|   -5.929842|   -5.716418|   -8.319160|    2.299112|
|        9259|  6.8296e+00|   -5.373968|   -5.614305|   -6.004258|   -5.929134|   -5.715639|   -8.318996|    2.299342|
|        9260|  6.8296e+00|   -5.373160|   -5.613424|   -6.003931|   -5.928421|   -5.714876|   -8.318837|    2.299572|
|        9261|  6.8296e+00|   -5.372362|   -5.612538|   -6.003601|   -5.927711|   -5.714119|   -8.318681|    2.299803|
|        9262|  6.8297e+00|   -5.371573|   -5.611650|   -6.003268|   -5.926999|   -5.713369|   -8.318529|    2.300034|
|        9263|  6.8297e+00|   -5.370788|   -5.610760|   -6.002924|   -5.926287|   -5.712621|   -8.318382|    2.300266|
|        9264|  6.8297e+00|   -5.370012|   -5.609872|   -6.002577|   -5.925573|   -5.711881|   -8.318239|    2.300498|
|        9265|  6.8298e+00|   -5.369250|   -5.608991|   -6.002227|   -5.924859|   -5.711154|   -8.318099|    2.300730|
|        9266|  6.8298e+00|   -5.368499|   -5.608115|   -6.001876|   -5.924144|   -5.710436|   -8.317964|    2.300963|
|        9267|  6.8298e+00|   -5.367762|   -5.607247|   -6.001524|   -5.923424|   -5.709731|   -8.317833|    2.301196|
|        9268|  6.8298e+00|   -5.367035|   -5.606384|   -6.001169|   -5.922697|   -5.709035|   -8.317706|    2.301430|
|        9269|  6.8299e+00|   -5.366316|   -5.605528|   -6.000811|   -5.921966|   -5.708345|   -8.317583|    2.301664|
|        9270|  6.8299e+00|   -5.365610|   -5.604678|   -6.000450|   -5.921236|   -5.707667|   -8.317464|    2.301899|
|        9271|  6.8299e+00|   -5.364916|   -5.603836|   -6.000086|   -5.920510|   -5.706999|   -8.317349|    2.302134|
|        9272|  6.8299e+00|   -5.364233|   -5.603005|   -5.999724|   -5.919779|   -5.706341|   -8.317238|    2.302370|
|        9273|  6.8300e+00|   -5.363556|   -5.602179|   -5.999359|   -5.919044|   -5.705685|   -8.317131|    2.302606|
|        9274|  6.8300e+00|   -5.362890|   -5.601361|   -5.998996|   -5.918309|   -5.705038|   -8.317029|    2.302842|
|        9275|  6.8300e+00|   -5.362233|   -5.600548|   -5.998636|   -5.917567|   -5.704400|   -8.316930|    2.303079|
|        9276|  6.8300e+00|   -5.361572|   -5.599737|   -5.998276|   -5.916816|   -5.703755|   -8.316835|    2.303316|
|        9277|  6.8300e+00|   -5.360906|   -5.598925|   -5.997912|   -5.916063|   -5.703102|   -8.316744|    2.303554|
|        9278|  6.8301e+00|   -5.360241|   -5.598114|   -5.997546|   -5.915305|   -5.702448|   -8.316658|    2.303792|
|        9279|  6.8301e+00|   -5.359583|   -5.597307|   -5.997184|   -5.914542|   -5.701800|   -8.316575|    2.304031|
|        9280|  6.8301e+00|   -5.358926|   -5.596502|   -5.996820|   -5.913772|   -5.701153|   -8.316496|    2.304270|
|        9281|  6.8301e+00|   -5.358270|   -5.595699|   -5.996458|   -5.913003|   -5.700507|   -8.316422|    2.304510|
|        9282|  6.8302e+00|   -5.357617|   -5.594900|   -5.996095|   -5.912241|   -5.699863|   -8.316351|    2.304750|
|        9283|  6.8302e+00|   -5.356955|   -5.594096|   -5.995720|   -5.911483|   -5.699209|   -8.316284|    2.304991|
|        9284|  6.8302e+00|   -5.356289|   -5.593289|   -5.995339|   -5.910733|   -5.698551|   -8.316222|    2.305232|
|        9285|  6.8302e+00|   -5.355625|   -5.592480|   -5.994950|   -5.909983|   -5.697893|   -8.316163|    2.305474|
|        9286|  6.8303e+00|   -5.354962|   -5.591666|   -5.994556|   -5.909228|   -5.697235|   -8.316108|    2.305717|
|        9287|  6.8303e+00|   -5.354289|   -5.590843|   -5.994161|   -5.908472|   -5.696567|   -8.316058|    2.305959|
|        9288|  6.8303e+00|   -5.353609|   -5.590011|   -5.993765|   -5.907721|   -5.695892|   -8.316011|    2.306203|
|        9289|  6.8303e+00|   -5.352940|   -5.589179|   -5.993369|   -5.906971|   -5.695226|   -8.315968|    2.306447|
|        9290|  6.8303e+00|   -5.352282|   -5.588348|   -5.992970|   -5.906222|   -5.694573|   -8.315929|    2.306691|
|        9291|  6.8304e+00|   -5.351633|   -5.587516|   -5.992571|   -5.905475|   -5.693929|   -8.315894|    2.306936|
|        9292|  6.8304e+00|   -5.350997|   -5.586684|   -5.992171|   -5.904728|   -5.693297|   -8.315863|    2.307182|
|        9293|  6.8304e+00|   -5.350372|   -5.585852|   -5.991775|   -5.903976|   -5.692676|   -8.315836|    2.307428|
|        9294|  6.8304e+00|   -5.349759|   -5.585018|   -5.991383|   -5.903219|   -5.692064|   -8.315813|    2.307675|
|        9295|  6.8305e+00|   -5.349161|   -5.584183|   -5.990993|   -5.902455|   -5.691468|   -8.315794|    2.307923|
|        9296|  6.8305e+00|   -5.348574|   -5.583349|   -5.990605|   -5.901682|   -5.690878|   -8.315779|    2.308171|
|        9297|  6.8305e+00|   -5.347994|   -5.582516|   -5.990218|   -5.900902|   -5.690294|   -8.315767|    2.308419|
|        9298|  6.8305e+00|   -5.347418|   -5.581684|   -5.989830|   -5.900111|   -5.689710|   -8.315760|    2.308668|
|        9299|  6.8306e+00|   -5.346850|   -5.580856|   -5.989440|   -5.899314|   -5.689130|   -8.315756|    2.308918|
|        9300|  6.8306e+00|   -5.346281|   -5.580031|   -5.989046|   -5.898510|   -5.688547|   -8.315757|    2.309169|
+-----------------------------------------------------------------------+
|        File Writing Summary       |              Filename             |
+-----------------------------------------------------------------------+
|SU2 binary restart                 |restart_flow.dat                   |
|Paraview                           |flow.vtu                           |
|Paraview surface                   |surface_flow.vtu                   |
+-----------------------------------------------------------------------+
+--------------------------------------------------------------------------------------------------------------------+
|  Inner_Iter|   Time(sec)|    rms[Rho]|   rms[RhoU]|   rms[RhoV]|   rms[RhoW]|   rms[RhoE]|     rms[nu]|          CD|
+--------------------------------------------------------------------------------------------------------------------+
|        9301|  6.8332e+00|   -5.345715|   -5.579200|   -5.988651|   -5.897699|   -5.687961|   -8.315761|    2.309420|
|        9302|  6.8333e+00|   -5.345155|   -5.578371|   -5.988256|   -5.896883|   -5.687377|   -8.315769|    2.309671|
|        9303|  6.8333e+00|   -5.344595|   -5.577541|   -5.987860|   -5.896062|   -5.686791|   -8.315781|    2.309924|
|        9304|  6.8333e+00|   -5.344026|   -5.576704|   -5.987464|   -5.895239|   -5.686192|   -8.315797|    2.310176|
|        9305|  6.8333e+00|   -5.343455|   -5.575865|   -5.987069|   -5.894421|   -5.685589|   -8.315817|    2.310430|
|        9306|  6.8334e+00|   -5.342869|   -5.575018|   -5.986673|   -5.893597|   -5.684968|   -8.315841|    2.310684|
|        9307|  6.8334e+00|   -5.342261|   -5.574154|   -5.986278|   -5.892775|   -5.684322|   -8.315869|    2.310939|
|        9308|  6.8334e+00|   -5.341645|   -5.573285|   -5.985886|   -5.891958|   -5.683666|   -8.315900|    2.311194|
|        9309|  6.8334e+00|   -5.341022|   -5.572410|   -5.985498|   -5.891149|   -5.683003|   -8.315935|    2.311450|
|        9310|  6.8335e+00|   -5.340387|   -5.571529|   -5.985109|   -5.890343|   -5.682325|   -8.315975|    2.311707|
|        9311|  6.8335e+00|   -5.339737|   -5.570641|   -5.984715|   -5.889545|   -5.681633|   -8.316018|    2.311964|
|        9312|  6.8335e+00|   -5.339073|   -5.569744|   -5.984319|   -5.888757|   -5.680924|   -8.316065|    2.312222|
|        9313|  6.8335e+00|   -5.338400|   -5.568835|   -5.983924|   -5.887977|   -5.680206|   -8.316115|    2.312480|
|        9314|  6.8336e+00|   -5.337714|   -5.567918|   -5.983531|   -5.887205|   -5.679474|   -8.316170|    2.312739|
|        9315|  6.8336e+00|   -5.337018|   -5.566994|   -5.983139|   -5.886444|   -5.678731|   -8.316228|    2.312999|
|        9316|  6.8336e+00|   -5.336307|   -5.566057|   -5.982746|   -5.885695|   -5.677973|   -8.316290|    2.313259|
|        9317|  6.8336e+00|   -5.335584|   -5.565107|   -5.982348|   -5.884955|   -5.677201|   -8.316356|    2.313519|
|        9318|  6.8337e+00|   -5.334839|   -5.564139|   -5.981950|   -5.884225|   -5.676406|   -8.316426|    2.313781|
|        9319|  6.8337e+00|   -5.334074|   -5.563154|   -5.981555|   -5.883507|   -5.675590|   -8.316500|    2.314043|
|        9320|  6.8337e+00|   -5.333285|   -5.562150|   -5.981159|   -5.882804|   -5.674750|   -8.316577|    2.314305|
|        9321|  6.8338e+00|   -5.332488|   -5.561128|   -5.980764|   -5.882128|   -5.673901|   -8.316658|    2.314568|
|        9322|  6.8338e+00|   -5.331686|   -5.560088|   -5.980368|   -5.881468|   -5.673047|   -8.316743|    2.314832|
|        9323|  6.8338e+00|   -5.330882|   -5.559034|   -5.979973|   -5.880826|   -5.672191|   -8.316832|    2.315096|
|        9324|  6.8338e+00|   -5.330072|   -5.557963|   -5.979575|   -5.880201|   -5.671327|   -8.316924|    2.315360|
|        9325|  6.8339e+00|   -5.329247|   -5.556873|   -5.979175|   -5.879588|   -5.670448|   -8.317020|    2.315625|
|        9326|  6.8339e+00|   -5.328422|   -5.555772|   -5.978776|   -5.878987|   -5.669568|   -8.317120|    2.315891|
|        9327|  6.8340e+00|   -5.327597|   -5.554657|   -5.978378|   -5.878397|   -5.668687|   -8.317224|    2.316157|
|        9328|  6.8340e+00|   -5.326773|   -5.553532|   -5.977981|   -5.877819|   -5.667807|   -8.317331|    2.316423|
|        9329|  6.8340e+00|   -5.325939|   -5.552394|   -5.977583|   -5.877248|   -5.666916|   -8.317443|    2.316690|
|        9330|  6.8340e+00|   -5.325095|   -5.551238|   -5.977184|   -5.876686|   -5.666015|   -8.317557|    2.316957|
|        9331|  6.8341e+00|   -5.324242|   -5.550067|   -5.976776|   -5.876146|   -5.665104|   -8.317676|    2.317225|
|        9332|  6.8341e+00|   -5.323382|   -5.548885|   -5.976368|   -5.875608|   -5.664186|   -8.317798|    2.317493|
|        9333|  6.8341e+00|   -5.322510|   -5.547693|   -5.975959|   -5.875077|   -5.663253|   -8.317924|    2.317762|
|        9334|  6.8341e+00|   -5.321637|   -5.546487|   -5.975549|   -5.874577|   -5.662322|   -8.318054|    2.318031|
|        9335|  6.8341e+00|   -5.320771|   -5.545274|   -5.975142|   -5.874095|   -5.661398|   -8.318187|    2.318300|
|        9336|  6.8342e+00|   -5.319903|   -5.544052|   -5.974735|   -5.873626|   -5.660471|   -8.318324|    2.318570|
|        9337|  6.8342e+00|   -5.319029|   -5.542820|   -5.974330|   -5.873165|   -5.659538|   -8.318465|    2.318840|
|        9338|  6.8342e+00|   -5.318162|   -5.541587|   -5.973924|   -5.872715|   -5.658612|   -8.318610|    2.319110|
|        9339|  6.8342e+00|   -5.317299|   -5.540353|   -5.973519|   -5.872267|   -5.657690|   -8.318758|    2.319381|
|        9340|  6.8343e+00|   -5.316447|   -5.539119|   -5.973113|   -5.871829|   -5.656779|   -8.318909|    2.319652|
|        9341|  6.8343e+00|   -5.315606|   -5.537891|   -5.972710|   -5.871404|   -5.655880|   -8.319065|    2.319923|
|        9342|  6.8343e+00|   -5.314787|   -5.536672|   -5.972310|   -5.870986|   -5.655002|   -8.319224|    2.320195|
|        9343|  6.8343e+00|   -5.313987|   -5.535464|   -5.971914|   -5.870571|   -5.654144|   -8.319387|    2.320467|
|        9344|  6.8344e+00|   -5.313203|   -5.534261|   -5.971524|   -5.870157|   -5.653300|   -8.319553|    2.320739|
|        9345|  6.8344e+00|   -5.312431|   -5.533063|   -5.971138|   -5.869750|   -5.652467|   -8.319723|    2.321011|
|        9346|  6.8344e+00|   -5.311677|   -5.531878|   -5.970757|   -5.869339|   -5.651652|   -8.319896|    2.321284|
|        9347|  6.8344e+00|   -5.310947|   -5.530710|   -5.970382|   -5.868925|   -5.650861|   -8.320073|    2.321557|
|        9348|  6.8344e+00|   -5.310225|   -5.529548|   -5.970002|   -5.868508|   -5.650078|   -8.320254|    2.321829|
|        9349|  6.8345e+00|   -5.309519|   -5.528397|   -5.969624|   -5.868088|   -5.649310|   -8.320439|    2.322103|
|        9350|  6.8345e+00|   -5.308834|   -5.527261|   -5.969250|   -5.867662|   -5.648562|   -8.320627|    2.322376|
|        9351|  6.8345e+00|   -5.308173|   -5.526140|   -5.968877|   -5.867233|   -5.647838|   -8.320818|    2.322649|
|        9352|  6.8345e+00|   -5.307534|   -5.525035|   -5.968509|   -5.866798|   -5.647134|   -8.321013|    2.322923|
|        9353|  6.8346e+00|   -5.306911|   -5.523937|   -5.968148|   -5.866352|   -5.646443|   -8.321212|    2.323197|
|        9354|  6.8346e+00|   -5.306305|   -5.522855|   -5.967793|   -5.865893|   -5.645770|   -8.321414|    2.323471|
|        9355|  6.8346e+00|   -5.305719|   -5.521790|   -5.967445|   -5.865426|   -5.645116|   -8.321620|    2.323745|
|        9356|  6.8346e+00|   -5.305151|   -5.520742|   -5.967101|   -5.864952|   -5.644480|   -8.321829|    2.324019|
|        9357|  6.8347e+00|   -5.304582|   -5.519709|   -5.966752|   -5.864468|   -5.643843|   -8.322042|    2.324293|
|        9358|  6.8347e+00|   -5.304030|   -5.518693|   -5.966405|   -5.863979|   -5.643223|   -8.322258|    2.324568|
|        9359|  6.8347e+00|   -5.303492|   -5.517692|   -5.966059|   -5.863482|   -5.642616|   -8.322478|    2.324842|
|        9360|  6.8348e+00|   -5.302958|   -5.516700|   -5.965713|   -5.862976|   -5.642011|   -8.322701|    2.325117|
|        9361|  6.8348e+00|   -5.302438|   -5.515719|   -5.965373|   -5.862462|   -5.641420|   -8.322928|    2.325391|
|        9362|  6.8348e+00|   -5.301925|   -5.514750|   -5.965035|   -5.861949|   -5.640836|   -8.323159|    2.325666|
|        9363|  6.8348e+00|   -5.301419|   -5.513789|   -5.964696|   -5.861428|   -5.640257|   -8.323392|    2.325941|
|        9364|  6.8349e+00|   -5.300924|   -5.512840|   -5.964356|   -5.860901|   -5.639690|   -8.323630|    2.326216|
|        9365|  6.8349e+00|   -5.300441|   -5.511902|   -5.964018|   -5.860372|   -5.639135|   -8.323870|    2.326491|
|        9366|  6.8349e+00|   -5.299961|   -5.510966|   -5.963679|   -5.859845|   -5.638580|   -8.324114|    2.326766|
|        9367|  6.8349e+00|   -5.299479|   -5.510031|   -5.963339|   -5.859319|   -5.638023|   -8.324362|    2.327041|
|        9368|  6.8350e+00|   -5.299001|   -5.509097|   -5.963000|   -5.858790|   -5.637468|   -8.324613|    2.327316|
|        9369|  6.8350e+00|   -5.298523|   -5.508164|   -5.962661|   -5.858254|   -5.636911|   -8.324867|    2.327591|
|        9370|  6.8350e+00|   -5.298043|   -5.507233|   -5.962320|   -5.857721|   -5.636351|   -8.325125|    2.327866|
|        9371|  6.8351e+00|   -5.297562|   -5.506298|   -5.961976|   -5.857194|   -5.635789|   -8.325387|    2.328141|
|        9372|  6.8351e+00|   -5.297068|   -5.505357|   -5.961630|   -5.856670|   -5.635212|   -8.325651|    2.328416|
|        9373|  6.8351e+00|   -5.296573|   -5.504419|   -5.961281|   -5.856154|   -5.634635|   -8.325919|    2.328691|
|        9374|  6.8352e+00|   -5.296078|   -5.503484|   -5.960929|   -5.855648|   -5.634059|   -8.326191|    2.328967|
|        9375|  6.8352e+00|   -5.295582|   -5.502548|   -5.960577|   -5.855151|   -5.633482|   -8.326466|    2.329242|
|        9376|  6.8352e+00|   -5.295085|   -5.501608|   -5.960227|   -5.854663|   -5.632902|   -8.326744|    2.329517|
|        9377|  6.8353e+00|   -5.294584|   -5.500665|   -5.959878|   -5.854176|   -5.632318|   -8.327025|    2.329793|
|        9378|  6.8353e+00|   -5.294071|   -5.499709|   -5.959528|   -5.853687|   -5.631719|   -8.327310|    2.330068|
|        9379|  6.8353e+00|   -5.293554|   -5.498744|   -5.959178|   -5.853205|   -5.631116|   -8.327598|    2.330343|
|        9380|  6.8353e+00|   -5.293027|   -5.497767|   -5.958828|   -5.852732|   -5.630502|   -8.327890|    2.330618|
|        9381|  6.8354e+00|   -5.292500|   -5.496787|   -5.958477|   -5.852271|   -5.629886|   -8.328185|    2.330894|
|        9382|  6.8354e+00|   -5.291973|   -5.495804|   -5.958129|   -5.851823|   -5.629273|   -8.328483|    2.331169|
|        9383|  6.8354e+00|   -5.291458|   -5.494826|   -5.957785|   -5.851395|   -5.628670|   -8.328784|    2.331444|
|        9384|  6.8354e+00|   -5.290955|   -5.493850|   -5.957446|   -5.850982|   -5.628080|   -8.329088|    2.331720|

scontrol show job 1178840
JobId=1178840 JobName=m6_aoa15
   UserId=anthonyy(3152141) GroupId=anthonyy(3152141) MCS_label=N/A
   Priority=532066 Nice=0 Account=rrg-jphickey QOS=normal
   JobState=COMPLETING Reason=TimeLimit Dependency=(null)
   Requeue=0 Restarts=0 BatchFlag=1 Reboot=0 ExitCode=0:15
   RunTime=18:00:22 TimeLimit=18:00:00 TimeMin=N/A
   SubmitTime=2026-03-15T02:51:58 EligibleTime=2026-03-15T02:51:58
   AccrueTime=2026-03-15T02:51:58
   StartTime=2026-03-15T03:51:51 EndTime=2026-03-15T21:52:13 Deadline=N/A
   SuspendTime=None SecsPreSuspend=0 LastSchedEval=2026-03-15T03:51:51 Scheduler=Main
   Partition=compute AllocNode:Sid=tri-login04:768438
   ReqNodeList=(null) ExcNodeList=(null)
   NodeList=tri[0325,0328]
   BatchHost=tri0325
   NumNodes=2 NumCPUs=384 NumTasks=128 CPUs/Task=1 ReqB:S:C:T=0:0:*:*
   ReqTRES=cpu=128,mem=1534000M,node=2,billing=128
   AllocTRES=cpu=384,mem=1534000M,node=2,billing=384
   Socks/Node=* NtasksPerN:B:S:C=64:0:*:* CoreSpec=*
   MinCPUsNode=64 MinMemoryNode=767000M MinTmpDiskNode=0
   Features=(null) DelayBoot=00:00:00
   OverSubscribe=NO Contiguous=0 Licenses=(null) Network=(null)
   Command=/scratch/anthonyy/reentry/orion/config/run.sh
   WorkDir=/scratch/anthonyy/reentry/orion/cases/m6_aoa15
   Comment=/opt/slurm/bin/sbatch --export=NONE --get-user-env=L --job-name m6_aoa15 --nodes 2 --ntasks-per-node 64 --cpus-per-task 1 --mem 0 --time 18:00:00 --account rrg-jphickey --output orion_%j.out --error orion_%j.err --chdir /scratch/anthonyy/reentry/orion/cases/m6_aoa15 /scratch/anthonyy/reentry/orion/config/run.sh /scratch/anthonyy/reentry/orion/config/generated/m6_aoa15.cfg 
   StdErr=/scratch/anthonyy/reentry/orion/cases/m6_aoa15/orion_1178840.err
   StdIn=/dev/null
   StdOut=/scratch/anthonyy/reentry/orion/cases/m6_aoa15/orion_1178840.out
   TresPerTask=cpu=1
   

sacct -j 1178840
JobID           JobName    Account    Elapsed  MaxVMSize     MaxRSS  SystemCPU    UserCPU ExitCode 
------------ ---------- ---------- ---------- ---------- ---------- ---------- ---------- -------- 
1178840        m6_aoa15 rrg-jphic+   18:00:22                         14:40:50 94-12:20:+      0:0 
1178840.bat+      batch rrg-jphic+   18:00:23          0      8.50M  00:00.113  00:00.589     0:15 
1178840.ext+     extern rrg-jphic+   18:00:27          0          0   00:00:00   00:00:00      0:0 
1178840.0       SU2_CFD rrg-jphic+   18:00:23          0  10652180K   14:40:50 94-12:20:+     0:15 

