Nodes:  tri[0810,0906]
Tasks:  128
NPN:    64
Config: /scratch/anthonyy/reentry/orion/config/generated/m6_aoa15.cfg

-------------------------------------------------------------------------
|    ___ _   _ ___                                                      |
|   / __| | | |_  )   Release 7.5.1 "Blackbird"                         |
|   \__ \ |_| |/ /                                                      |
|   |___/\___//___|   Suite (Computational Fluid Dynamics Code)         |
|                                                                       |
-------------------------------------------------------------------------
| SU2 Project Website: https://su2code.github.io                        |
|                                                                       |
| The SU2 Project is maintained by the SU2 Foundation                   |
| (http://su2foundation.org)                                            |
-------------------------------------------------------------------------
| Copyright 2012-2023, SU2 Contributors                                 |
|                                                                       |
| SU2 is free software; you can redistribute it and/or                  |
| modify it under the terms of the GNU Lesser General Public            |
| License as published by the Free Software Foundation; either          |
| version 2.1 of the License, or (at your option) any later version.    |
|                                                                       |
| SU2 is distributed in the hope that it will be useful,                |
| but WITHOUT ANY WARRANTY; without even the implied warranty of        |
| MERCHANTABILITY or FITNESS FOR A PARTICULAR PURPOSE. See the GNU      |
| Lesser General Public License for more details.                       |
|                                                                       |
| You should have received a copy of the GNU Lesser General Public      |
| License along with SU2. If not, see <http://www.gnu.org/licenses/>.   |
-------------------------------------------------------------------------

Parsing config file for zone 0

----------------- Physical Case Definition ( Zone 0 ) -------------------
Compressible RANS equations.
Turbulence model: Spalart-Allmaras-noft2
Hybrid RANS/LES: No Hybrid RANS/LES
Mach number: 6.
Angle of attack (AoA): 15 deg, and angle of sideslip (AoS): 0 deg.
Reynolds number: 6.86229e+08. Reference length 5.
Reading and writing binary SU2 native restart files.
Read flow solution from: restart_flow.dat.
Non-Dimensional simulation (V=1.0, Rho=1.0, T=1.0 at the farfield).
The reference area will be computed using y(2D) or z(3D) projection.
The semi-span will be computed using the max y(3D) value.
The reference length is 0.64607 m.
Reference origin for moment evaluation is (0.25, 0, 0).
Surface(s) where the force coefficients are evaluated: ORION_SURFACE.

Input mesh file name: ../../mesh/fine.su2

--------------- Space Numerical Integration ( Zone 0 ) ------------------
Jameson-Schmidt-Turkel scheme (2nd order in space) for the flow inviscid terms.
JST viscous coefficients (2nd & 4th): 0.5, 0.02.
The method includes a grid stretching correction (p = 0.3).
Scalar upwind solver for the turbulence model.
First order integration in space.
Average of gradients with correction (viscous flow terms).
Average of gradients with correction (viscous turbulence terms).
Gradient for upwind reconstruction: Green-Gauss.
Gradient for viscous and source terms: Green-Gauss.

--------------- Time Numerical Integration  ( Zone 0 ) ------------------
Local time stepping (steady state simulation).
Euler implicit method for the flow equations.
FGMRES is used for solving the linear system.
Using a ILU(0) preconditioning.
Convergence criteria of the linear solver: 1e-06.
Max number of linear iterations: 100.
CFL adaptation. Factor down: 0.5, factor up: 1.1,
                lower limit: 0.05, upper limit: 0.5,
                acceptable linear residual: 0.001.
Courant-Friedrichs-Lewy number:     0.03
Euler implicit time integration for the turbulence model.

------------------ Convergence Criteria  ( Zone 0 ) ---------------------
Maximum number of solver subiterations: 999999.
Begin convergence monitoring at iteration 5.
Residual minimum value: 1e-8.
Cauchy series min. value: 1e-10.
Number of Cauchy elements: 100.
Begin windowed time average at iteration 0.

-------------------- Output Information ( Zone 0 ) ----------------------
File writing frequency: 
+------------------------------------+
|                     File| Frequency|
+------------------------------------+
|                  RESTART|       150|
|                 PARAVIEW|       150|
|         SURFACE_PARAVIEW|       150|
+------------------------------------+
Writing the convergence history file every 1 inner iterations.
Writing the screen convergence history every 1 inner iterations.
The tabular file format is CSV (.csv).
Convergence history file name: history.
Forces breakdown file name: forces_breakdown.dat.
Surface file name: surface_flow.
Volume file name: flow.
Restart file name: restart_flow.

------------- Config File Boundary Information ( Zone 0 ) ---------------
+-----------------------------------------------------------------------+
|                        Marker Type|                        Marker Name|
+-----------------------------------------------------------------------+
|                          Far-field|                           FARFIELD|
+-----------------------------------------------------------------------+
|                     Heat flux wall|                      ORION_SURFACE|
+-----------------------------------------------------------------------+

-------------------- Output Preprocessing ( Zone 0 ) --------------------

WARNING: SURFACE_PRESSURE_DROP can only be computed for at least 2 surfaces (outlet, inlet, ...)

Screen output fields: INNER_ITER, WALL_TIME, RMS_DENSITY, RMS_MOMENTUM-X, RMS_MOMENTUM-Y, RMS_MOMENTUM-Z, RMS_ENERGY, RMS_NU_TILDE, DRAG
History output group(s): ITER, RMS_RES
Convergence field(s): RMS_DENSITY
Warning: No (valid) fields chosen for time convergence monitoring. Time convergence monitoring inactive.
Volume output fields: MACH, PRESSURE, TEMPERATURE, DENSITY, HEAT_FLUX, Y_PLUS, COORDINATES, SOLUTION

------------------- Geometry Preprocessing ( Zone 0 ) -------------------
Three dimensional problem.
62211324 grid points before partitioning.
190879888 volume elements before partitioning.
2 surface markers.
4104 boundary elements in index 0 (Marker = FARFIELD).
1824836 boundary elements in index 1 (Marker = ORION_SURFACE).
Executing the partitioning functions.
Building the graph adjacency structure.
Calling ParMETIS... graph partitioning complete (4959327 edge cuts).
Distributing ParMETIS coloring.
Rebalancing vertices.
Rebalancing volume element connectivity.
Rebalancing markers and surface elements.
66952290 vertices including ghost points. 
197997438 interior elements including halo cells. 
103171259 tetrahedra.
94500655 prisms.
325524 pyramids.
Establishing MPI communication patterns.
Setting point connectivity.
Renumbering points (Reverse Cuthill McKee Ordering).
Recomputing point connectivity.
Setting element connectivity.
Checking the numerical grid orientation.
All volume elements are correctly orientend.
All surface elements are correctly orientend.
Identifying edges and vertices.
Setting the control volume structure.
Volume of the computational grid: 535693.
Searching for the closest normal neighbors to the surfaces.
Storing a mapping from global to local point index.
Compute the surface curvature.
Max K: 132.896. Mean K: 3.9104. Standard deviation K: 7.49569.
Checking for periodicity.
Computing mesh quality statistics for the dual control volumes.
+--------------------------------------------------------------+
|           Mesh Quality Metric|        Minimum|        Maximum|
+--------------------------------------------------------------+
|    Orthogonality Angle (deg.)|        53.0661|             90|
|     CV Face Area Aspect Ratio|        1.01143|        75298.5|
|           CV Sub-Volume Ratio|        1.00029|        45.0258|
+--------------------------------------------------------------+
Finding max control volume width.
Communicating number of neighbors.
Reference area = 11.531 m^2.
Semi-span length = 2.49999 m.
Wetted area = 57.9072 m^2.
Area projection in the x-plane = 19.6343 m^2, y-plane = 11.531 m^2, z-plane = 11.531 m^2.
Max. coordinate in the x-direction = 2.575 m, y-direction = 2.49999 m, z-direction = 2.49999 m.
Min. coordinate in the x-direction = -0.71 m, y-direction = -2.49999 m, z-direction = -2.5 m.
Computing wall distances.

-------------------- Solver Preprocessing ( Zone 0 ) --------------------
Viscous flow: Computing pressure using the ideal gas law
based on the free-stream temperature and a density computed
from the Reynolds number.
Force coefficients computed using free-stream values.

-- Models:
+------------------------------------------------------------------------------+
|          Viscosity Model|        Conductivity Model|              Fluid Model|
+------------------------------------------------------------------------------+
|               SUTHERLAND|          CONSTANT_PRANDTL|             STANDARD_AIR|
+------------------------------------------------------------------------------+
-- Fluid properties:
+------------------------------------------------------------------------------+
|                  Name|    Dim. value|    Ref. value|      Unit|Non-dim. value|
+------------------------------------------------------------------------------+
|        Ref. Viscosity|     1.716e-05|       2455.73|   N.s/m^2|   6.98773e-09|
|      Sutherland Temp.|        273.15|        288.15|         K|      0.947944|
|     Sutherland Const.|         110.4|        288.15|         K|      0.383134|
+------------------------------------------------------------------------------+
|        Prandtl (Lam.)|             -|             -|         -|          0.72|
|       Prandtl (Turb.)|             -|             -|         -|           0.9|
+------------------------------------------------------------------------------+
|          Gas Constant|       287.058|       14467.7|  N.m/kg.K|     0.0198413|
|      Spec. Heat Ratio|             -|             -|         -|           1.4|
+------------------------------------------------------------------------------+
-- Initial and free-stream conditions:
+------------------------------------------------------------------------------+
|                  Name|    Dim. value|    Ref. value|      Unit|Non-dim. value|
+------------------------------------------------------------------------------+
|       Static Pressure|       99485.6|   5.01407e+06|        Pa|     0.0198413|
|               Density|       1.20274|       1.20274|    kg/m^3|             1|
|           Temperature|        288.15|        288.15|         K|             1|
|          Total Energy|   2.29123e+06|   4.16887e+06|   m^2/s^2|      0.549603|
|            Velocity-X|       1972.21|       2041.78|       m/s|      0.965926|
|            Velocity-Y|             0|       2041.78|       m/s|             0|
|            Velocity-Z|       528.452|       2041.78|       m/s|      0.258819|
|    Velocity Magnitude|       2041.78|       2041.78|       m/s|             1|
+------------------------------------------------------------------------------+
|             Viscosity|    1.7893e-05|       2455.73|   N.s/m^2|    7.2862e-09|
|          Conductivity|             -|   3.55289e+07|   W/m^2.K|             -|
|     Turb. Kin. Energy|       15633.3|   4.16887e+06|   m^2/s^2|       0.00375|
|     Spec. Dissipation|   1.05085e+08|       2041.78|       1/s|       51467.1|
+------------------------------------------------------------------------------+
|           Mach Number|             -|             -|         -|             6|
|       Reynolds Number|             -|             -|         -|   6.86229e+08|
+------------------------------------------------------------------------------+
Initialize Jacobian structure (Navier-Stokes). MG level: 0.
Initialize Jacobian structure (SA model).

------------------- Numerics Preprocessing ( Zone 0 ) -------------------

----------------- Integration Preprocessing ( Zone 0 ) ------------------

------------------- Iteration Preprocessing ( Zone 0 ) ------------------
Euler/Navier-Stokes/RANS fluid iteration.

------------------------------ Begin Solver -----------------------------

Simulation Run using the Single-zone Driver
WARNING: SU2 was not compiled for an AVX-capable architecture. Performance could be better,
         see https://su2code.github.io/docs_v7/Build-SU2-Linux-MacOS/#compiler-optimizations
+--------------------------------------------------------------------------------------------------------------------+
|  Inner_Iter|   Time(sec)|    rms[Rho]|   rms[RhoU]|   rms[RhoV]|   rms[RhoW]|   rms[RhoE]|     rms[nu]|          CD|
+--------------------------------------------------------------------------------------------------------------------+
|           0|  5.8434e+00|   -4.881788|   -4.950482|   -5.488409|   -5.311689|   -5.130022|   -7.607196|    2.326808|
|           1|  5.1445e+00|   -4.881855|   -4.950555|   -5.488473|   -5.311745|   -5.130111|   -7.607182|    2.326805|
|           2|  4.8888e+00|   -4.881964|   -4.950674|   -5.488574|   -5.311834|   -5.130255|   -7.607226|    2.326801|
|           3|  4.7636e+00|   -4.882084|   -4.950804|   -5.488684|   -5.311932|   -5.130412|   -7.607274|    2.326798|
|           4|  4.6960e+00|   -4.882214|   -4.950947|   -5.488801|   -5.312037|   -5.130584|   -7.607327|    2.326793|
|           5|  4.6371e+00|   -4.882356|   -4.951104|   -5.488928|   -5.312152|   -5.130770|   -7.607386|    2.326788|
|           6|  4.6062e+00|   -4.882510|   -4.951275|   -5.489063|   -5.312276|   -5.130973|   -7.607450|    2.326783|
|           7|  4.5781e+00|   -4.882678|   -4.951463|   -5.489208|   -5.312410|   -5.131193|   -7.607521|    2.326777|
|           8|  4.5563e+00|   -4.882861|   -4.951669|   -5.489362|   -5.312555|   -5.131432|   -7.607598|    2.326770|
|           9|  4.5370e+00|   -4.883059|   -4.951894|   -5.489525|   -5.312711|   -5.131691|   -7.607684|    2.326763|
|          10|  4.5225e+00|   -4.883274|   -4.952140|   -5.489698|   -5.312879|   -5.131972|   -7.607778|    2.326755|
|          11|  4.5093e+00|   -4.883508|   -4.952410|   -5.489880|   -5.313059|   -5.132275|   -7.607881|    2.326746|
|          12|  4.5316e+00|   -4.883759|   -4.952703|   -5.490071|   -5.313252|   -5.132602|   -7.607995|    2.326736|
|          13|  4.5531e+00|   -4.884031|   -4.953023|   -5.490270|   -5.313457|   -5.132955|   -7.608119|    2.326725|
|          14|  4.5730e+00|   -4.884324|   -4.953372|   -5.490475|   -5.313676|   -5.133334|   -7.608257|    2.326713|
|          15|  4.5861e+00|   -4.884639|   -4.953751|   -5.490686|   -5.313907|   -5.133740|   -7.608408|    2.326700|
|          16|  4.6001e+00|   -4.884977|   -4.954163|   -5.490901|   -5.314151|   -5.134174|   -7.608574|    2.326685|
|          17|  4.6146e+00|   -4.885338|   -4.954610|   -5.491117|   -5.314407|   -5.134636|   -7.608756|    2.326668|
|          18|  4.6257e+00|   -4.885722|   -4.955093|   -5.491333|   -5.314674|   -5.135127|   -7.608957|    2.326649|
|          19|  4.6363e+00|   -4.886131|   -4.955613|   -5.491543|   -5.314951|   -5.135646|   -7.609177|    2.326629|
|          20|  4.6460e+00|   -4.886561|   -4.956173|   -5.491745|   -5.315235|   -5.136191|   -7.609420|    2.326605|
|          21|  4.6541e+00|   -4.887014|   -4.956773|   -5.491933|   -5.315524|   -5.136759|   -7.609686|    2.326580|
|          22|  4.6778e+00|   -4.887485|   -4.957412|   -5.492100|   -5.315814|   -5.137348|   -7.609978|    2.326551|
|          23|  4.6986e+00|   -4.887972|   -4.958090|   -5.492241|   -5.316100|   -5.137952|   -7.610299|    2.326518|
|          24|  4.7207e+00|   -4.888470|   -4.958804|   -5.492347|   -5.316375|   -5.138564|   -7.610652|    2.326482|
|          25|  4.7422e+00|   -4.888971|   -4.959549|   -5.492409|   -5.316633|   -5.139173|   -7.611039|    2.326441|
|          26|  4.7615e+00|   -4.889466|   -4.960319|   -5.492416|   -5.316863|   -5.139766|   -7.611561|    2.326398|
|          27|  4.7800e+00|   -4.889946|   -4.961076|   -5.492420|   -5.317081|   -5.140343|   -7.612106|    2.326355|
|          28|  4.7950e+00|   -4.890409|   -4.961812|   -5.492433|   -5.317291|   -5.140902|   -7.612646|    2.326311|
|          29|  4.8099e+00|   -4.890856|   -4.962529|   -5.492452|   -5.317494|   -5.141446|   -7.613182|    2.326266|
|          30|  4.8240e+00|   -4.891287|   -4.963226|   -5.492478|   -5.317689|   -5.141974|   -7.613712|    2.326220|
|          31|  4.8373e+00|   -4.891702|   -4.963905|   -5.492510|   -5.317877|   -5.142487|   -7.614238|    2.326173|
|          32|  4.8509e+00|   -4.892102|   -4.964565|   -5.492547|   -5.318058|   -5.142986|   -7.614759|    2.326126|
|          33|  4.8614e+00|   -4.892487|   -4.965209|   -5.492588|   -5.318233|   -5.143472|   -7.615275|    2.326077|
|          34|  4.8740e+00|   -4.892857|   -4.965836|   -5.492634|   -5.318400|   -5.143944|   -7.615786|    2.326028|
|          35|  4.8836e+00|   -4.893212|   -4.966447|   -5.492684|   -5.318562|   -5.144404|   -7.616292|    2.325978|
|          36|  4.8959e+00|   -4.893553|   -4.967042|   -5.492737|   -5.318716|   -5.144852|   -7.616792|    2.325927|
|          37|  4.9069e+00|   -4.893881|   -4.967622|   -5.492795|   -5.318865|   -5.145290|   -7.617287|    2.325875|
|          38|  4.9173e+00|   -4.894197|   -4.968189|   -5.492856|   -5.319009|   -5.145718|   -7.617777|    2.325822|
|          39|  4.9253e+00|   -4.894500|   -4.968741|   -5.492919|   -5.319147|   -5.146136|   -7.618262|    2.325768|
|          40|  4.9326e+00|   -4.894792|   -4.969281|   -5.492985|   -5.319280|   -5.146546|   -7.618741|    2.325713|
|          41|  4.9411e+00|   -4.895072|   -4.969810|   -5.493052|   -5.319408|   -5.146947|   -7.619214|    2.325658|
|          42|  4.9483e+00|   -4.895342|   -4.970326|   -5.493121|   -5.319531|   -5.147341|   -7.619682|    2.325601|
|          43|  4.9543e+00|   -4.895602|   -4.970833|   -5.493192|   -5.319650|   -5.147729|   -7.620144|    2.325544|
|          44|  4.9619e+00|   -4.895854|   -4.971329|   -5.493265|   -5.319766|   -5.148112|   -7.620601|    2.325485|
|          45|  4.9686e+00|   -4.896097|   -4.971818|   -5.493339|   -5.319878|   -5.148490|   -7.621053|    2.325426|
|          46|  4.9736e+00|   -4.896332|   -4.972297|   -5.493413|   -5.319986|   -5.148863|   -7.621499|    2.325366|
|          47|  4.9795e+00|   -4.896561|   -4.972769|   -5.493487|   -5.320092|   -5.149233|   -7.621939|    2.325305|
|          48|  4.9866e+00|   -4.896781|   -4.973232|   -5.493561|   -5.320193|   -5.149599|   -7.622374|    2.325243|
|          49|  4.9924e+00|   -4.896994|   -4.973688|   -5.493635|   -5.320291|   -5.149960|   -7.622803|    2.325180|
|          50|  4.9977e+00|   -4.897198|   -4.974135|   -5.493706|   -5.320385|   -5.150317|   -7.623226|    2.325116|
|          51|  5.0023e+00|   -4.897396|   -4.974574|   -5.493776|   -5.320474|   -5.150670|   -7.623644|    2.325051|
|          52|  5.0066e+00|   -4.897586|   -4.975006|   -5.493845|   -5.320561|   -5.151019|   -7.624056|    2.324986|
|          53|  5.0115e+00|   -4.897770|   -4.975431|   -5.493912|   -5.320643|   -5.151365|   -7.624462|    2.324919|
|          54|  5.0162e+00|   -4.897946|   -4.975849|   -5.493977|   -5.320721|   -5.151707|   -7.624862|    2.324851|
|          55|  5.0211e+00|   -4.898116|   -4.976260|   -5.494040|   -5.320795|   -5.152046|   -7.625257|    2.324783|
|          56|  5.0260e+00|   -4.898280|   -4.976663|   -5.494102|   -5.320866|   -5.152382|   -7.625646|    2.324714|
|          57|  5.0314e+00|   -4.898438|   -4.977060|   -5.494162|   -5.320932|   -5.152715|   -7.626029|    2.324643|
|          58|  5.0389e+00|   -4.898589|   -4.977450|   -5.494220|   -5.320995|   -5.153044|   -7.626406|    2.324572|
|          59|  5.0433e+00|   -4.898734|   -4.977833|   -5.494276|   -5.321053|   -5.153371|   -7.626777|    2.324500|
|          60|  5.0468e+00|   -4.898873|   -4.978210|   -5.494331|   -5.321108|   -5.153694|   -7.627142|    2.324427|
|          61|  5.0498e+00|   -4.899006|   -4.978580|   -5.494383|   -5.321159|   -5.154013|   -7.627501|    2.324353|
|          62|  5.0527e+00|   -4.899133|   -4.978942|   -5.494433|   -5.321205|   -5.154330|   -7.627854|    2.324278|
|          63|  5.0567e+00|   -4.899254|   -4.979298|   -5.494481|   -5.321248|   -5.154643|   -7.628202|    2.324202|
|          64|  5.0598e+00|   -4.899369|   -4.979647|   -5.494527|   -5.321286|   -5.154952|   -7.628543|    2.324125|
|          65|  5.0635e+00|   -4.899479|   -4.979990|   -5.494572|   -5.321321|   -5.155259|   -7.628879|    2.324047|
|          66|  5.0670e+00|   -4.899584|   -4.980326|   -5.494615|   -5.321351|   -5.155563|   -7.629208|    2.323968|
|          67|  5.0703e+00|   -4.899682|   -4.980655|   -5.494656|   -5.321377|   -5.155863|   -7.629532|    2.323889|
|          68|  5.0720e+00|   -4.899775|   -4.980977|   -5.494695|   -5.321398|   -5.156159|   -7.629849|    2.323808|
|          69|  5.0753e+00|   -4.899862|   -4.981292|   -5.494731|   -5.321415|   -5.156451|   -7.630161|    2.323727|
|          70|  5.0791e+00|   -4.899944|   -4.981601|   -5.494767|   -5.321428|   -5.156741|   -7.630466|    2.323644|
|          71|  5.0824e+00|   -4.900020|   -4.981902|   -5.494802|   -5.321437|   -5.157027|   -7.630764|    2.323561|
|          72|  5.0849e+00|   -4.900091|   -4.982197|   -5.494835|   -5.321442|   -5.157309|   -7.631057|    2.323477|
|          73|  5.0877e+00|   -4.900157|   -4.982484|   -5.494869|   -5.321443|   -5.157588|   -7.631343|    2.323391|
|          74|  5.0895e+00|   -4.900217|   -4.982764|   -5.494900|   -5.321440|   -5.157863|   -7.631624|    2.323305|
|          75|  5.0911e+00|   -4.900272|   -4.983037|   -5.494928|   -5.321433|   -5.158134|   -7.631898|    2.323218|
|          76|  5.0931e+00|   -4.900321|   -4.983304|   -5.494956|   -5.321423|   -5.158402|   -7.632166|    2.323130|
|          77|  5.0954e+00|   -4.900368|   -4.983566|   -5.494982|   -5.321411|   -5.158669|   -7.632429|    2.323041|
|          78|  5.0969e+00|   -4.900408|   -4.983821|   -5.495005|   -5.321394|   -5.158930|   -7.632685|    2.322951|
|          79|  5.0990e+00|   -4.900441|   -4.984067|   -5.495026|   -5.321372|   -5.159187|   -7.632935|    2.322860|
|          80|  5.1011e+00|   -4.900468|   -4.984305|   -5.495043|   -5.321346|   -5.159437|   -7.633180|    2.322769|
|          81|  5.1026e+00|   -4.900487|   -4.984534|   -5.495057|   -5.321314|   -5.159682|   -7.633418|    2.322676|
|          82|  5.1043e+00|   -4.900499|   -4.984755|   -5.495069|   -5.321278|   -5.159922|   -7.633650|    2.322582|
|          83|  5.1060e+00|   -4.900506|   -4.984967|   -5.495078|   -5.321238|   -5.160156|   -7.633877|    2.322487|
|          84|  5.1078e+00|   -4.900506|   -4.985171|   -5.495086|   -5.321193|   -5.160386|   -7.634097|    2.322392|
|          85|  5.1099e+00|   -4.900501|   -4.985368|   -5.495092|   -5.321145|   -5.160612|   -7.634311|    2.322295|
|          86|  5.1121e+00|   -4.900489|   -4.985558|   -5.495095|   -5.321094|   -5.160833|   -7.634519|    2.322198|
|          87|  5.1139e+00|   -4.900471|   -4.985740|   -5.495096|   -5.321039|   -5.161048|   -7.634722|    2.322099|
|          88|  5.1155e+00|   -4.900446|   -4.985912|   -5.495094|   -5.320979|   -5.161257|   -7.634918|    2.322000|
|          89|  5.1172e+00|   -4.900413|   -4.986075|   -5.495090|   -5.320914|   -5.161460|   -7.635108|    2.321900|
|          90|  5.1183e+00|   -4.900374|   -4.986229|   -5.495084|   -5.320845|   -5.161658|   -7.635292|    2.321799|
|          91|  5.1195e+00|   -4.900328|   -4.986373|   -5.495074|   -5.320770|   -5.161848|   -7.635470|    2.321696|
|          92|  5.1210e+00|   -4.900272|   -4.986507|   -5.495059|   -5.320690|   -5.162030|   -7.635643|    2.321593|
|          93|  5.1228e+00|   -4.900208|   -4.986630|   -5.495040|   -5.320604|   -5.162205|   -7.635809|    2.321489|
|          94|  5.1251e+00|   -4.900136|   -4.986744|   -5.495019|   -5.320512|   -5.162372|   -7.635969|    2.321384|
|          95|  5.1267e+00|   -4.900057|   -4.986849|   -5.494994|   -5.320416|   -5.162533|   -7.636123|    2.321278|
|          96|  5.1283e+00|   -4.899970|   -4.986944|   -5.494967|   -5.320314|   -5.162686|   -7.636271|    2.321171|
|          97|  5.1305e+00|   -4.899874|   -4.987028|   -5.494936|   -5.320206|   -5.162831|   -7.636412|    2.321063|
|          98|  5.1321e+00|   -4.899771|   -4.987103|   -5.494904|   -5.320093|   -5.162970|   -7.636548|    2.320954|
|          99|  5.1336e+00|   -4.899660|   -4.987168|   -5.494870|   -5.319976|   -5.163101|   -7.636679|    2.320844|
|         100|  5.1348e+00|   -4.899542|   -4.987223|   -5.494833|   -5.319854|   -5.163225|   -7.636803|    2.320734|
|         101|  5.1359e+00|   -4.899415|   -4.987269|   -5.494794|   -5.319727|   -5.163342|   -7.636922|    2.320622|
|         102|  5.1369e+00|   -4.899282|   -4.987304|   -5.494753|   -5.319595|   -5.163451|   -7.637035|    2.320509|
|         103|  5.1380e+00|   -4.899141|   -4.987330|   -5.494709|   -5.319459|   -5.163553|   -7.637142|    2.320396|
|         104|  5.1399e+00|   -4.898992|   -4.987346|   -5.494660|   -5.319317|   -5.163648|   -7.637243|    2.320281|
|         105|  5.1416e+00|   -4.898834|   -4.987353|   -5.494609|   -5.319171|   -5.163734|   -7.637338|    2.320166|
|         106|  5.1429e+00|   -4.898670|   -4.987349|   -5.494554|   -5.319020|   -5.163813|   -7.637428|    2.320049|
|         107|  5.1442e+00|   -4.898497|   -4.987336|   -5.494497|   -5.318864|   -5.163884|   -7.637513|    2.319932|
|         108|  5.1455e+00|   -4.898318|   -4.987314|   -5.494438|   -5.318703|   -5.163948|   -7.637591|    2.319814|
|         109|  5.1465e+00|   -4.898131|   -4.987283|   -5.494376|   -5.318537|   -5.164005|   -7.637665|    2.319694|
|         110|  5.1482e+00|   -4.897938|   -4.987243|   -5.494314|   -5.318367|   -5.164057|   -7.637732|    2.319574|
|         111|  5.1497e+00|   -4.897738|   -4.987194|   -5.494250|   -5.318193|   -5.164100|   -7.637794|    2.319453|
|         112|  5.1508e+00|   -4.897530|   -4.987136|   -5.494184|   -5.318014|   -5.164137|   -7.637850|    2.319331|
|         113|  5.1515e+00|   -4.897316|   -4.987069|   -5.494115|   -5.317830|   -5.164167|   -7.637901|    2.319208|
|         114|  5.1525e+00|   -4.897094|   -4.986992|   -5.494045|   -5.317643|   -5.164189|   -7.637947|    2.319084|
|         115|  5.1538e+00|   -4.896867|   -4.986907|   -5.493975|   -5.317451|   -5.164205|   -7.637987|    2.318959|
|         116|  5.1549e+00|   -4.896633|   -4.986813|   -5.493903|   -5.317256|   -5.164215|   -7.638021|    2.318833|
|         117|  5.1567e+00|   -4.896393|   -4.986711|   -5.493829|   -5.317057|   -5.164218|   -7.638051|    2.318706|
|         118|  5.1581e+00|   -4.896147|   -4.986600|   -5.493753|   -5.316854|   -5.164215|   -7.638075|    2.318578|
|         119|  5.1591e+00|   -4.895894|   -4.986480|   -5.493674|   -5.316646|   -5.164204|   -7.638094|    2.318449|
|         120|  5.1598e+00|   -4.895635|   -4.986352|   -5.493593|   -5.316435|   -5.164187|   -7.638107|    2.318320|
|         121|  5.1612e+00|   -4.895370|   -4.986215|   -5.493510|   -5.316220|   -5.164162|   -7.638116|    2.318189|
|         122|  5.1619e+00|   -4.895098|   -4.986069|   -5.493423|   -5.316002|   -5.164131|   -7.638119|    2.318058|
|         123|  5.1625e+00|   -4.894820|   -4.985915|   -5.493335|   -5.315779|   -5.164093|   -7.638117|    2.317925|
|         124|  5.1637e+00|   -4.894536|   -4.985752|   -5.493245|   -5.315553|   -5.164049|   -7.638110|    2.317792|
|         125|  5.1657e+00|   -4.894247|   -4.985583|   -5.493154|   -5.315323|   -5.163999|   -7.638098|    2.317658|
|         126|  5.1675e+00|   -4.893953|   -4.985405|   -5.493062|   -5.315091|   -5.163943|   -7.638081|    2.317523|
|         127|  5.1689e+00|   -4.893653|   -4.985219|   -5.492968|   -5.314854|   -5.163881|   -7.638060|    2.317386|
|         128|  5.1701e+00|   -4.893347|   -4.985026|   -5.492874|   -5.314614|   -5.163812|   -7.638033|    2.317250|
|         129|  5.1711e+00|   -4.893036|   -4.984824|   -5.492780|   -5.314371|   -5.163738|   -7.638002|    2.317112|
|         130|  5.1718e+00|   -4.892720|   -4.984615|   -5.492684|   -5.314124|   -5.163658|   -7.637966|    2.316973|
|         131|  5.1733e+00|   -4.892399|   -4.984398|   -5.492587|   -5.313874|   -5.163571|   -7.637926|    2.316833|
|         132|  5.1743e+00|   -4.892072|   -4.984173|   -5.492488|   -5.313620|   -5.163478|   -7.637881|    2.316693|
|         133|  5.1752e+00|   -4.891740|   -4.983941|   -5.492387|   -5.313364|   -5.163379|   -7.637832|    2.316551|
|         134|  5.1765e+00|   -4.891404|   -4.983701|   -5.492285|   -5.313105|   -5.163275|   -7.637778|    2.316409|
|         135|  5.1771e+00|   -4.891063|   -4.983454|   -5.492184|   -5.312844|   -5.163165|   -7.637719|    2.316266|
|         136|  5.1779e+00|   -4.890719|   -4.983200|   -5.492080|   -5.312580|   -5.163050|   -7.637657|    2.316122|
|         137|  5.1787e+00|   -4.890369|   -4.982940|   -5.491976|   -5.312314|   -5.162930|   -7.637590|    2.315977|
|         138|  5.1796e+00|   -4.890017|   -4.982673|   -5.491873|   -5.312047|   -5.162806|   -7.637518|    2.315831|
|         139|  5.1804e+00|   -4.889665|   -4.982404|   -5.491770|   -5.311783|   -5.162681|   -7.637443|    2.315685|
|         140|  5.1810e+00|   -4.889308|   -4.982128|   -5.491666|   -5.311516|   -5.162551|   -7.637364|    2.315537|
|         141|  5.1821e+00|   -4.888947|   -4.981845|   -5.491560|   -5.311247|   -5.162416|   -7.637281|    2.315389|
|         142|  5.1830e+00|   -4.888582|   -4.981556|   -5.491452|   -5.310975|   -5.162275|   -7.637194|    2.315240|
|         143|  5.1841e+00|   -4.888213|   -4.981260|   -5.491342|   -5.310701|   -5.162128|   -7.637104|    2.315090|
|         144|  5.1850e+00|   -4.887839|   -4.980957|   -5.491230|   -5.310424|   -5.161976|   -7.637009|    2.314939|
|         145|  5.1861e+00|   -4.887461|   -4.980648|   -5.491117|   -5.310145|   -5.161818|   -7.636911|    2.314788|
|         146|  5.1873e+00|   -4.887081|   -4.980334|   -5.491003|   -5.309864|   -5.161656|   -7.636809|    2.314635|
|         147|  5.1881e+00|   -4.886696|   -4.980013|   -5.490888|   -5.309581|   -5.161488|   -7.636703|    2.314482|
|         148|  5.1887e+00|   -4.886308|   -4.979686|   -5.490771|   -5.309295|   -5.161315|   -7.636594|    2.314328|
|         149|  5.1904e+00|   -4.885916|   -4.979354|   -5.490653|   -5.309005|   -5.161137|   -7.636481|    2.314173|
|         150|  5.1916e+00|   -4.885520|   -4.979016|   -5.490533|   -5.308713|   -5.160954|   -7.636365|    2.314018|
+-----------------------------------------------------------------------+
|        File Writing Summary       |              Filename             |
+-----------------------------------------------------------------------+
|SU2 binary restart                 |restart_flow.dat                   |
|Paraview                           |flow.vtu                           |
|Paraview surface                   |surface_flow.vtu                   |
+-----------------------------------------------------------------------+
+--------------------------------------------------------------------------------------------------------------------+
|  Inner_Iter|   Time(sec)|    rms[Rho]|   rms[RhoU]|   rms[RhoV]|   rms[RhoW]|   rms[RhoE]|     rms[nu]|          CD|
+--------------------------------------------------------------------------------------------------------------------+
|         151|  5.3331e+00|   -4.885121|   -4.978673|   -5.490412|   -5.308419|   -5.160766|   -7.636245|    2.313862|
|         152|  5.3336e+00|   -4.884718|   -4.978324|   -5.490289|   -5.308123|   -5.160572|   -7.636123|    2.313705|
|         153|  5.3342e+00|   -4.884312|   -4.977970|   -5.490164|   -5.307824|   -5.160374|   -7.635996|    2.313547|
|         154|  5.3347e+00|   -4.883902|   -4.977610|   -5.490037|   -5.307523|   -5.160171|   -7.635867|    2.313388|
|         155|  5.3350e+00|   -4.883489|   -4.977246|   -5.489909|   -5.307221|   -5.159963|   -7.635735|    2.313229|
|         156|  5.3347e+00|   -4.883073|   -4.976877|   -5.489780|   -5.306917|   -5.159751|   -7.635599|    2.313069|
|         157|  5.3347e+00|   -4.882655|   -4.976503|   -5.489650|   -5.306612|   -5.159535|   -7.635460|    2.312908|
|         158|  5.3341e+00|   -4.882233|   -4.976124|   -5.489518|   -5.306305|   -5.159314|   -7.635319|    2.312747|
|         159|  5.3336e+00|   -4.881809|   -4.975740|   -5.489385|   -5.305996|   -5.159089|   -7.635174|    2.312585|
|         160|  5.3331e+00|   -4.881382|   -4.975352|   -5.489250|   -5.305686|   -5.158860|   -7.635026|    2.312422|
|         161|  5.3330e+00|   -4.880953|   -4.974960|   -5.489114|   -5.305375|   -5.158628|   -7.634876|    2.312258|
|         162|  5.3330e+00|   -4.880522|   -4.974563|   -5.488977|   -5.305062|   -5.158391|   -7.634723|    2.312094|
|         163|  5.3331e+00|   -4.880088|   -4.974162|   -5.488839|   -5.304748|   -5.158151|   -7.634568|    2.311929|
|         164|  5.3327e+00|   -4.879651|   -4.973757|   -5.488700|   -5.304433|   -5.157906|   -7.634410|    2.311763|
|         165|  5.3328e+00|   -4.879213|   -4.973348|   -5.488560|   -5.304116|   -5.157658|   -7.634249|    2.311597|
|         166|  5.3323e+00|   -4.878771|   -4.972934|   -5.488419|   -5.303797|   -5.157405|   -7.634086|    2.311430|
|         167|  5.3321e+00|   -4.878328|   -4.972517|   -5.488277|   -5.303477|   -5.157149|   -7.633920|    2.311262|
|         168|  5.3318e+00|   -4.877881|   -4.972094|   -5.488134|   -5.303156|   -5.156888|   -7.633752|    2.311094|
|         169|  5.3315e+00|   -4.877433|   -4.971668|   -5.487992|   -5.302834|   -5.156625|   -7.633583|    2.310925|
|         170|  5.3311e+00|   -4.876983|   -4.971238|   -5.487850|   -5.302510|   -5.156358|   -7.633411|    2.310756|
|         171|  5.3307e+00|   -4.876531|   -4.970804|   -5.487707|   -5.302185|   -5.156088|   -7.633237|    2.310585|
|         172|  5.3306e+00|   -4.876076|   -4.970366|   -5.487561|   -5.301859|   -5.155813|   -7.633062|    2.310415|
|         173|  5.3304e+00|   -4.875620|   -4.969925|   -5.487415|   -5.301532|   -5.155535|   -7.632885|    2.310243|
|         174|  5.3302e+00|   -4.875163|   -4.969481|   -5.487269|   -5.301206|   -5.155255|   -7.632706|    2.310071|
|         175|  5.3302e+00|   -4.874705|   -4.969034|   -5.487122|   -5.300882|   -5.154973|   -7.632525|    2.309898|
|         176|  5.3302e+00|   -4.874247|   -4.968586|   -5.486975|   -5.300560|   -5.154691|   -7.632343|    2.309725|
|         177|  5.3301e+00|   -4.873788|   -4.968134|   -5.486828|   -5.300237|   -5.154406|   -7.632159|    2.309551|
|         178|  5.3300e+00|   -4.873327|   -4.967680|   -5.486679|   -5.299914|   -5.154117|   -7.631973|    2.309377|
|         179|  5.3299e+00|   -4.872865|   -4.967223|   -5.486528|   -5.299589|   -5.153826|   -7.631787|    2.309201|
|         180|  5.3299e+00|   -4.872401|   -4.966762|   -5.486375|   -5.299263|   -5.153530|   -7.631599|    2.309026|
|         181|  5.3302e+00|   -4.871935|   -4.966298|   -5.486221|   -5.298937|   -5.153232|   -7.631410|    2.308849|
|         182|  5.3304e+00|   -4.871468|   -4.965830|   -5.486066|   -5.298610|   -5.152931|   -7.631220|    2.308673|
|         183|  5.3302e+00|   -4.870999|   -4.965360|   -5.485911|   -5.298283|   -5.152627|   -7.631029|    2.308495|
|         184|  5.3300e+00|   -4.870529|   -4.964888|   -5.485756|   -5.297955|   -5.152321|   -7.630837|    2.308317|
|         185|  5.3298e+00|   -4.870059|   -4.964413|   -5.485601|   -5.297626|   -5.152013|   -7.630644|    2.308139|
|         186|  5.3295e+00|   -4.869586|   -4.963934|   -5.485444|   -5.297297|   -5.151700|   -7.630450|    2.307959|
|         187|  5.3294e+00|   -4.869111|   -4.963453|   -5.485285|   -5.296966|   -5.151384|   -7.630256|    2.307780|
|         188|  5.3296e+00|   -4.868634|   -4.962968|   -5.485125|   -5.296634|   -5.151065|   -7.630061|    2.307599|
|         189|  5.3295e+00|   -4.868156|   -4.962481|   -5.484964|   -5.296302|   -5.150742|   -7.629866|    2.307418|
|         190|  5.3293e+00|   -4.867676|   -4.961992|   -5.484802|   -5.295968|   -5.150417|   -7.629670|    2.307237|
|         191|  5.3290e+00|   -4.867196|   -4.961499|   -5.484638|   -5.295633|   -5.150089|   -7.629474|    2.307055|
|         192|  5.3288e+00|   -4.866714|   -4.961003|   -5.484476|   -5.295298|   -5.149758|   -7.629278|    2.306872|
|         193|  5.3285e+00|   -4.866235|   -4.960510|   -5.484315|   -5.294965|   -5.149430|   -7.629081|    2.306689|
|         194|  5.3281e+00|   -4.865755|   -4.960015|   -5.484153|   -5.294632|   -5.149099|   -7.628883|    2.306505|
|         195|  5.3281e+00|   -4.865275|   -4.959519|   -5.483991|   -5.294299|   -5.148768|   -7.628686|    2.306321|
|         196|  5.3282e+00|   -4.864795|   -4.959020|   -5.483829|   -5.293964|   -5.148433|   -7.628488|    2.306136|
|         197|  5.3283e+00|   -4.864312|   -4.958519|   -5.483666|   -5.293629|   -5.148095|   -7.628291|    2.305951|
|         198|  5.3282e+00|   -4.863828|   -4.958014|   -5.483502|   -5.293292|   -5.147754|   -7.628093|    2.305765|
|         199|  5.3281e+00|   -4.863343|   -4.957507|   -5.483338|   -5.292955|   -5.147410|   -7.627896|    2.305578|
|         200|  5.3282e+00|   -4.862856|   -4.956998|   -5.483170|   -5.292617|   -5.147064|   -7.627699|    2.305391|
|         201|  5.3282e+00|   -4.862368|   -4.956486|   -5.483001|   -5.292279|   -5.146715|   -7.627501|    2.305204|
|         202|  5.3280e+00|   -4.861880|   -4.955972|   -5.482831|   -5.291941|   -5.146364|   -7.627304|    2.305015|
|         203|  5.3282e+00|   -4.861389|   -4.955455|   -5.482659|   -5.291601|   -5.146009|   -7.627107|    2.304827|
|         204|  5.3281e+00|   -4.860897|   -4.954935|   -5.482486|   -5.291261|   -5.145651|   -7.626911|    2.304637|
|         205|  5.3278e+00|   -4.860404|   -4.954413|   -5.482314|   -5.290921|   -5.145291|   -7.626714|    2.304447|
|         206|  5.3277e+00|   -4.859911|   -4.953888|   -5.482140|   -5.290580|   -5.144929|   -7.626519|    2.304257|
|         207|  5.3275e+00|   -4.859416|   -4.953361|   -5.481964|   -5.290239|   -5.144563|   -7.626324|    2.304066|
|         208|  5.3274e+00|   -4.858928|   -4.952842|   -5.481791|   -5.289908|   -5.144206|   -7.626129|    2.303874|
|         209|  5.3272e+00|   -4.858440|   -4.952322|   -5.481619|   -5.289576|   -5.143847|   -7.625936|    2.303682|
|         210|  5.3271e+00|   -4.857950|   -4.951799|   -5.481446|   -5.289243|   -5.143485|   -7.625744|    2.303489|
|         211|  5.3268e+00|   -4.857459|   -4.951272|   -5.481272|   -5.288907|   -5.143119|   -7.625552|    2.303296|
|         212|  5.3265e+00|   -4.856966|   -4.950743|   -5.481097|   -5.288570|   -5.142750|   -7.625361|    2.303102|
|         213|  5.3259e+00|   -4.856471|   -4.950211|   -5.480919|   -5.288230|   -5.142377|   -7.625171|    2.302907|
|         214|  5.3256e+00|   -4.855975|   -4.949676|   -5.480739|   -5.287890|   -5.142001|   -7.624981|    2.302712|
|         215|  5.3252e+00|   -4.855476|   -4.949138|   -5.480557|   -5.287546|   -5.141620|   -7.624792|    2.302516|
|         216|  5.3250e+00|   -4.854975|   -4.948597|   -5.480372|   -5.287201|   -5.141236|   -7.624605|    2.302320|
|         217|  5.3246e+00|   -4.854471|   -4.948052|   -5.480184|   -5.286853|   -5.140847|   -7.624419|    2.302123|
|         218|  5.3242e+00|   -4.853966|   -4.947505|   -5.479996|   -5.286505|   -5.140456|   -7.624234|    2.301925|
|         219|  5.3241e+00|   -4.853459|   -4.946955|   -5.479806|   -5.286154|   -5.140060|   -7.624051|    2.301727|
|         220|  5.3239e+00|   -4.852950|   -4.946402|   -5.479615|   -5.285802|   -5.139661|   -7.623869|    2.301528|
|         221|  5.3236e+00|   -4.852439|   -4.945847|   -5.479422|   -5.285449|   -5.139259|   -7.623689|    2.301329|
|         222|  5.3232e+00|   -4.851928|   -4.945289|   -5.479229|   -5.285095|   -5.138854|   -7.623510|    2.301128|
|         223|  5.3234e+00|   -4.851414|   -4.944729|   -5.479037|   -5.284741|   -5.138446|   -7.623332|    2.300928|
|         224|  5.3235e+00|   -4.850900|   -4.944167|   -5.478845|   -5.284386|   -5.138035|   -7.623156|    2.300726|
|         225|  5.3234e+00|   -4.850384|   -4.943602|   -5.478653|   -5.284029|   -5.137621|   -7.622981|    2.300525|
|         226|  5.3233e+00|   -4.849867|   -4.943036|   -5.478462|   -5.283672|   -5.137205|   -7.622808|    2.300322|
|         227|  5.3233e+00|   -4.849350|   -4.942469|   -5.478271|   -5.283315|   -5.136788|   -7.622637|    2.300119|
|         228|  5.3232e+00|   -4.848831|   -4.941899|   -5.478080|   -5.282956|   -5.136367|   -7.622466|    2.299915|
|         229|  5.3231e+00|   -4.848312|   -4.941328|   -5.477890|   -5.282597|   -5.135945|   -7.622298|    2.299710|
|         230|  5.3230e+00|   -4.847792|   -4.940756|   -5.477701|   -5.282239|   -5.135521|   -7.622131|    2.299505|
|         231|  5.3230e+00|   -4.847272|   -4.940183|   -5.477511|   -5.281880|   -5.135095|   -7.621966|    2.299299|
|         232|  5.3232e+00|   -4.846752|   -4.939608|   -5.477322|   -5.281521|   -5.134668|   -7.621802|    2.299093|
|         233|  5.3233e+00|   -4.846230|   -4.939032|   -5.477133|   -5.281163|   -5.134238|   -7.621640|    2.298886|
|         234|  5.3234e+00|   -4.845709|   -4.938455|   -5.476945|   -5.280806|   -5.133808|   -7.621480|    2.298678|
|         235|  5.3236e+00|   -4.845187|   -4.937877|   -5.476756|   -5.280449|   -5.133376|   -7.621321|    2.298470|
|         236|  5.3233e+00|   -4.844665|   -4.937298|   -5.476566|   -5.280092|   -5.132942|   -7.621165|    2.298261|
|         237|  5.3233e+00|   -4.844142|   -4.936717|   -5.476378|   -5.279735|   -5.132506|   -7.621010|    2.298051|
|         238|  5.3234e+00|   -4.843619|   -4.936136|   -5.476189|   -5.279378|   -5.132069|   -7.620856|    2.297840|
|         239|  5.3234e+00|   -4.843096|   -4.935553|   -5.475999|   -5.279023|   -5.131630|   -7.620705|    2.297629|
|         240|  5.3234e+00|   -4.842573|   -4.934970|   -5.475811|   -5.278668|   -5.131191|   -7.620556|    2.297417|
|         241|  5.3232e+00|   -4.842050|   -4.934387|   -5.475622|   -5.278315|   -5.130751|   -7.620408|    2.297205|
|         242|  5.3229e+00|   -4.841529|   -4.933803|   -5.475434|   -5.277963|   -5.130310|   -7.620263|    2.296992|
|         243|  5.3232e+00|   -4.841007|   -4.933218|   -5.475245|   -5.277612|   -5.129869|   -7.620120|    2.296778|
|         244|  5.3233e+00|   -4.840487|   -4.932634|   -5.475056|   -5.277262|   -5.129427|   -7.619978|    2.296563|
|         245|  5.3236e+00|   -4.839968|   -4.932050|   -5.474869|   -5.276915|   -5.128986|   -7.619839|    2.296348|
|         246|  5.3235e+00|   -4.839451|   -4.931467|   -5.474683|   -5.276570|   -5.128545|   -7.619702|    2.296132|
|         247|  5.3233e+00|   -4.838935|   -4.930884|   -5.474498|   -5.276226|   -5.128104|   -7.619567|    2.295915|
|         248|  5.3234e+00|   -4.838420|   -4.930302|   -5.474314|   -5.275883|   -5.127663|   -7.619434|    2.295698|
|         249|  5.3232e+00|   -4.837906|   -4.929720|   -5.474130|   -5.275541|   -5.127222|   -7.619303|    2.295480|
|         250|  5.3228e+00|   -4.837394|   -4.929139|   -5.473947|   -5.275201|   -5.126781|   -7.619174|    2.295261|
|         251|  5.3226e+00|   -4.836883|   -4.928558|   -5.473764|   -5.274863|   -5.126341|   -7.619047|    2.295042|
|         252|  5.3226e+00|   -4.836373|   -4.927978|   -5.473583|   -5.274526|   -5.125900|   -7.618922|    2.294822|
|         253|  5.3228e+00|   -4.835864|   -4.927399|   -5.473401|   -5.274190|   -5.125460|   -7.618800|    2.294601|
|         254|  5.3229e+00|   -4.835357|   -4.926820|   -5.473221|   -5.273856|   -5.125020|   -7.618679|    2.294379|
|         255|  5.3230e+00|   -4.834851|   -4.926242|   -5.473041|   -5.273524|   -5.124580|   -7.618561|    2.294157|
|         256|  5.3228e+00|   -4.834347|   -4.925665|   -5.472863|   -5.273193|   -5.124142|   -7.618445|    2.293934|
|         257|  5.3226e+00|   -4.833844|   -4.925089|   -5.472685|   -5.272865|   -5.123704|   -7.618331|    2.293711|
|         258|  5.3226e+00|   -4.833345|   -4.924514|   -5.472508|   -5.272540|   -5.123268|   -7.618219|    2.293486|
|         259|  5.3224e+00|   -4.832848|   -4.923943|   -5.472332|   -5.272218|   -5.122834|   -7.618109|    2.293261|
|         260|  5.3220e+00|   -4.832355|   -4.923373|   -5.472158|   -5.271898|   -5.122402|   -7.618002|    2.293036|
|         261|  5.3218e+00|   -4.831863|   -4.922806|   -5.471985|   -5.271579|   -5.121970|   -7.617896|    2.292809|
|         262|  5.3217e+00|   -4.831373|   -4.922240|   -5.471813|   -5.271262|   -5.121540|   -7.617793|    2.292582|
|         263|  5.3217e+00|   -4.830885|   -4.921674|   -5.471643|   -5.270946|   -5.121110|   -7.617692|    2.292354|
|         264|  5.3213e+00|   -4.830398|   -4.921111|   -5.471471|   -5.270633|   -5.120680|   -7.617593|    2.292126|
|         265|  5.3211e+00|   -4.829913|   -4.920547|   -5.471299|   -5.270320|   -5.120250|   -7.617497|    2.291896|
|         266|  5.3209e+00|   -4.829429|   -4.919985|   -5.471125|   -5.270008|   -5.119820|   -7.617402|    2.291667|
|         267|  5.3206e+00|   -4.828946|   -4.919425|   -5.470952|   -5.269698|   -5.119390|   -7.617311|    2.291436|
|         268|  5.3206e+00|   -4.828465|   -4.918865|   -5.470779|   -5.269390|   -5.118961|   -7.617221|    2.291205|
|         269|  5.3207e+00|   -4.827986|   -4.918306|   -5.470607|   -5.269084|   -5.118532|   -7.617134|    2.290973|
|         270|  5.3207e+00|   -4.827508|   -4.917749|   -5.470436|   -5.268779|   -5.118104|   -7.617049|    2.290740|
|         271|  5.3205e+00|   -4.827032|   -4.917192|   -5.470267|   -5.268475|   -5.117676|   -7.616966|    2.290507|
|         272|  5.3203e+00|   -4.826557|   -4.916636|   -5.470099|   -5.268173|   -5.117248|   -7.616886|    2.290273|
|         273|  5.3203e+00|   -4.826085|   -4.916083|   -5.469932|   -5.267875|   -5.116822|   -7.616808|    2.290038|
|         274|  5.3202e+00|   -4.825618|   -4.915534|   -5.469768|   -5.267580|   -5.116399|   -7.616732|    2.289803|
|         275|  5.3202e+00|   -4.825155|   -4.914990|   -5.469608|   -5.267287|   -5.115982|   -7.616658|    2.289567|
|         276|  5.3200e+00|   -4.824692|   -4.914445|   -5.469448|   -5.266994|   -5.115563|   -7.616587|    2.289331|
|         277|  5.3199e+00|   -4.824231|   -4.913902|   -5.469290|   -5.266704|   -5.115144|   -7.616518|    2.289094|
|         278|  5.3200e+00|   -4.823772|   -4.913361|   -5.469133|   -5.266417|   -5.114727|   -7.616451|    2.288856|
|         279|  5.3198e+00|   -4.823319|   -4.912825|   -5.468977|   -5.266140|   -5.114316|   -7.616386|    2.288617|
|         280|  5.3198e+00|   -4.822868|   -4.912290|   -5.468824|   -5.265866|   -5.113906|   -7.616324|    2.288378|
|         281|  5.3196e+00|   -4.822420|   -4.911758|   -5.468673|   -5.265595|   -5.113498|   -7.616263|    2.288139|
|         282|  5.3195e+00|   -4.821973|   -4.911227|   -5.468524|   -5.265325|   -5.113090|   -7.616206|    2.287898|
|         283|  5.3192e+00|   -4.821527|   -4.910696|   -5.468377|   -5.265055|   -5.112681|   -7.616150|    2.287657|
|         284|  5.3192e+00|   -4.821083|   -4.910165|   -5.468230|   -5.264786|   -5.112272|   -7.616097|    2.287416|
|         285|  5.3191e+00|   -4.820639|   -4.909636|   -5.468085|   -5.264518|   -5.111863|   -7.616046|    2.287174|
|         286|  5.3188e+00|   -4.820199|   -4.909109|   -5.467941|   -5.264253|   -5.111456|   -7.615998|    2.286931|
|         287|  5.3187e+00|   -4.819759|   -4.908582|   -5.467798|   -5.263988|   -5.111047|   -7.615952|    2.286688|
|         288|  5.3186e+00|   -4.819319|   -4.908056|   -5.467657|   -5.263722|   -5.110638|   -7.615909|    2.286444|
|         289|  5.3184e+00|   -4.818881|   -4.907529|   -5.467517|   -5.263457|   -5.110228|   -7.615868|    2.286200|
|         290|  5.3182e+00|   -4.818443|   -4.907004|   -5.467378|   -5.263192|   -5.109817|   -7.615829|    2.285955|
|         291|  5.3183e+00|   -4.818006|   -4.906478|   -5.467239|   -5.262927|   -5.109406|   -7.615793|    2.285709|
|         292|  5.3182e+00|   -4.817570|   -4.905953|   -5.467101|   -5.262663|   -5.108994|   -7.615759|    2.285463|
|         293|  5.3181e+00|   -4.817135|   -4.905429|   -5.466964|   -5.262400|   -5.108582|   -7.615728|    2.285217|
|         294|  5.3177e+00|   -4.816701|   -4.904906|   -5.466827|   -5.262137|   -5.108170|   -7.615698|    2.284970|
|         295|  5.3172e+00|   -4.816269|   -4.904384|   -5.466692|   -5.261876|   -5.107758|   -7.615671|    2.284722|
|         296|  5.3169e+00|   -4.815840|   -4.903866|   -5.466558|   -5.261617|   -5.107348|   -7.615646|    2.284474|
|         297|  5.3167e+00|   -4.815421|   -4.903358|   -5.466428|   -5.261368|   -5.106947|   -7.615624|    2.284226|
|         298|  5.3167e+00|   -4.815003|   -4.902851|   -5.466300|   -5.261119|   -5.106547|   -7.615603|    2.283977|
|         299|  5.3167e+00|   -4.814587|   -4.902346|   -5.466174|   -5.260871|   -5.106147|   -7.615584|    2.283727|
|         300|  5.3164e+00|   -4.814173|   -4.901842|   -5.466051|   -5.260624|   -5.105749|   -7.615567|    2.283477|
+-----------------------------------------------------------------------+
|        File Writing Summary       |              Filename             |
+-----------------------------------------------------------------------+
|SU2 binary restart                 |restart_flow.dat                   |
|Paraview                           |flow.vtu                           |
|Paraview surface                   |surface_flow.vtu                   |
+-----------------------------------------------------------------------+
+--------------------------------------------------------------------------------------------------------------------+
|  Inner_Iter|   Time(sec)|    rms[Rho]|   rms[RhoU]|   rms[RhoV]|   rms[RhoW]|   rms[RhoE]|     rms[nu]|          CD|
+--------------------------------------------------------------------------------------------------------------------+
|         301|  5.3873e+00|   -4.813761|   -4.901340|   -5.465928|   -5.260378|   -5.105350|   -7.615553|    2.283227|
|         302|  5.3879e+00|   -4.813350|   -4.900839|   -5.465808|   -5.260133|   -5.104952|   -7.615540|    2.282976|
|         303|  5.3879e+00|   -4.812941|   -4.900338|   -5.465688|   -5.259889|   -5.104554|   -7.615529|    2.282725|
|         304|  5.3878e+00|   -4.812533|   -4.899840|   -5.465570|   -5.259646|   -5.104157|   -7.615521|    2.282474|
|         305|  5.3875e+00|   -4.812130|   -4.899345|   -5.465451|   -5.259405|   -5.103763|   -7.615514|    2.282222|
|         306|  5.3871e+00|   -4.811728|   -4.898853|   -5.465333|   -5.259166|   -5.103370|   -7.615509|    2.281969|
|         307|  5.3868e+00|   -4.811330|   -4.898364|   -5.465217|   -5.258928|   -5.102978|   -7.615507|    2.281716|
|         308|  5.3867e+00|   -4.810933|   -4.897876|   -5.465103|   -5.258692|   -5.102587|   -7.615506|    2.281463|
|         309|  5.3867e+00|   -4.810539|   -4.897390|   -5.464991|   -5.258457|   -5.102197|   -7.615507|    2.281210|
|         310|  5.3866e+00|   -4.810146|   -4.896906|   -5.464880|   -5.258223|   -5.101809|   -7.615510|    2.280956|
|         311|  5.3863e+00|   -4.809757|   -4.896426|   -5.464772|   -5.257992|   -5.101422|   -7.615516|    2.280702|
|         312|  5.3859e+00|   -4.809371|   -4.895948|   -5.464667|   -5.257763|   -5.101038|   -7.615523|    2.280447|
|         313|  5.3858e+00|   -4.808988|   -4.895472|   -5.464562|   -5.257536|   -5.100655|   -7.615532|    2.280192|
|         314|  5.3855e+00|   -4.808607|   -4.894999|   -5.464461|   -5.257311|   -5.100274|   -7.615544|    2.279937|
|         315|  5.3853e+00|   -4.808230|   -4.894528|   -5.464361|   -5.257088|   -5.099895|   -7.615557|    2.279682|
|         316|  5.3849e+00|   -4.807855|   -4.894061|   -5.464262|   -5.256869|   -5.099518|   -7.615571|    2.279426|
|         317|  5.3846e+00|   -4.807484|   -4.893596|   -5.464166|   -5.256652|   -5.099143|   -7.615588|    2.279170|
|         318|  5.3844e+00|   -4.807115|   -4.893135|   -5.464072|   -5.256437|   -5.098770|   -7.615606|    2.278914|
|         319|  5.3841e+00|   -4.806750|   -4.892676|   -5.463979|   -5.256225|   -5.098399|   -7.615626|    2.278657|
|         320|  5.3838e+00|   -4.806389|   -4.892222|   -5.463889|   -5.256016|   -5.098032|   -7.615648|    2.278401|
|         321|  5.3836e+00|   -4.806032|   -4.891772|   -5.463802|   -5.255811|   -5.097668|   -7.615671|    2.278143|
|         322|  5.3833e+00|   -4.805678|   -4.891325|   -5.463716|   -5.255610|   -5.097307|   -7.615697|    2.277886|
|         323|  5.3833e+00|   -4.805329|   -4.890883|   -5.463633|   -5.255412|   -5.096950|   -7.615723|    2.277629|
|         324|  5.3832e+00|   -4.804985|   -4.890444|   -5.463554|   -5.255218|   -5.096596|   -7.615752|    2.277371|
|         325|  5.3831e+00|   -4.804645|   -4.890010|   -5.463475|   -5.255026|   -5.096245|   -7.615782|    2.277113|
|         326|  5.3830e+00|   -4.804308|   -4.889579|   -5.463398|   -5.254836|   -5.095897|   -7.615814|    2.276855|
|         327|  5.3827e+00|   -4.803975|   -4.889153|   -5.463323|   -5.254649|   -5.095552|   -7.615847|    2.276597|
|         328|  5.3825e+00|   -4.803647|   -4.888731|   -5.463249|   -5.254464|   -5.095210|   -7.615883|    2.276338|
|         329|  5.3823e+00|   -4.803322|   -4.888312|   -5.463179|   -5.254283|   -5.094871|   -7.615919|    2.276080|
|         330|  5.3821e+00|   -4.803002|   -4.887898|   -5.463109|   -5.254103|   -5.094535|   -7.615958|    2.275821|
|         331|  5.3821e+00|   -4.802684|   -4.887487|   -5.463042|   -5.253926|   -5.094201|   -7.615998|    2.275562|
|         332|  5.3819e+00|   -4.802371|   -4.887080|   -5.462976|   -5.253751|   -5.093869|   -7.616039|    2.275303|
|         333|  5.3817e+00|   -4.802061|   -4.886677|   -5.462911|   -5.253578|   -5.093541|   -7.616083|    2.275043|
|         334|  5.3813e+00|   -4.801756|   -4.886279|   -5.462848|   -5.253408|   -5.093215|   -7.616127|    2.274784|
|         335|  5.3812e+00|   -4.801454|   -4.885885|   -5.462787|   -5.253239|   -5.092893|   -7.616174|    2.274524|
|         336|  5.3810e+00|   -4.801157|   -4.885495|   -5.462727|   -5.253074|   -5.092574|   -7.616222|    2.274265|
|         337|  5.3806e+00|   -4.800864|   -4.885110|   -5.462671|   -5.252911|   -5.092258|   -7.616271|    2.274005|
|         338|  5.3804e+00|   -4.800576|   -4.884731|   -5.462617|   -5.252751|   -5.091946|   -7.616321|    2.273745|
|         339|  5.3801e+00|   -4.800293|   -4.884357|   -5.462564|   -5.252596|   -5.091639|   -7.616372|    2.273485|
|         340|  5.3798e+00|   -4.800015|   -4.883988|   -5.462514|   -5.252444|   -5.091336|   -7.616425|    2.273225|
|         341|  5.3795e+00|   -4.799741|   -4.883623|   -5.462467|   -5.252294|   -5.091036|   -7.616479|    2.272964|
|         342|  5.3793e+00|   -4.799472|   -4.883264|   -5.462422|   -5.252150|   -5.090741|   -7.616535|    2.272704|
|         343|  5.3791e+00|   -4.799210|   -4.882911|   -5.462380|   -5.252012|   -5.090452|   -7.616592|    2.272444|
|         344|  5.3788e+00|   -4.798951|   -4.882563|   -5.462341|   -5.251876|   -5.090166|   -7.616650|    2.272183|
|         345|  5.3786e+00|   -4.798697|   -4.882220|   -5.462304|   -5.251743|   -5.089884|   -7.616709|    2.271922|
|         346|  5.3784e+00|   -4.798447|   -4.881880|   -5.462270|   -5.251612|   -5.089605|   -7.616769|    2.271661|
|         347|  5.3780e+00|   -4.798202|   -4.881546|   -5.462238|   -5.251483|   -5.089329|   -7.616830|    2.271400|
|         348|  5.3778e+00|   -4.797968|   -4.881226|   -5.462211|   -5.251362|   -5.089066|   -7.616892|    2.271139|
|         349|  5.3778e+00|   -4.797740|   -4.880913|   -5.462186|   -5.251245|   -5.088807|   -7.616955|    2.270878|
|         350|  5.3777e+00|   -4.797516|   -4.880606|   -5.462161|   -5.251132|   -5.088553|   -7.617019|    2.270617|
|         351|  5.3774e+00|   -4.797300|   -4.880307|   -5.462139|   -5.251026|   -5.088305|   -7.617084|    2.270356|
|         352|  5.3772e+00|   -4.797090|   -4.880015|   -5.462121|   -5.250922|   -5.088064|   -7.617150|    2.270094|
|         353|  5.3770e+00|   -4.796882|   -4.879726|   -5.462103|   -5.250821|   -5.087825|   -7.617217|    2.269833|
|         354|  5.3768e+00|   -4.796679|   -4.879442|   -5.462085|   -5.250723|   -5.087589|   -7.617285|    2.269571|
|         355|  5.3767e+00|   -4.796478|   -4.879161|   -5.462067|   -5.250627|   -5.087355|   -7.617353|    2.269310|
|         356|  5.3766e+00|   -4.796281|   -4.878883|   -5.462050|   -5.250533|   -5.087123|   -7.617422|    2.269048|
|         357|  5.3763e+00|   -4.796087|   -4.878610|   -5.462033|   -5.250443|   -5.086893|   -7.617492|    2.268786|
|         358|  5.3761e+00|   -4.795898|   -4.878340|   -5.462019|   -5.250357|   -5.086668|   -7.617563|    2.268524|
|         359|  5.3759e+00|   -4.795711|   -4.878073|   -5.462003|   -5.250272|   -5.086444|   -7.617634|    2.268262|
|         360|  5.3757e+00|   -4.795528|   -4.877810|   -5.461989|   -5.250189|   -5.086222|   -7.617706|    2.268000|
|         361|  5.3758e+00|   -4.795347|   -4.877550|   -5.461975|   -5.250108|   -5.086002|   -7.617780|    2.267738|
|         362|  5.3755e+00|   -4.795169|   -4.877293|   -5.461963|   -5.250029|   -5.085784|   -7.617853|    2.267476|
|         363|  5.3753e+00|   -4.794995|   -4.877040|   -5.461951|   -5.249954|   -5.085568|   -7.617928|    2.267213|
|         364|  5.3751e+00|   -4.794824|   -4.876790|   -5.461940|   -5.249880|   -5.085355|   -7.618004|    2.266951|
|         365|  5.3748e+00|   -4.794655|   -4.876542|   -5.461931|   -5.249808|   -5.085143|   -7.618080|    2.266688|
|         366|  5.3747e+00|   -4.794490|   -4.876297|   -5.461923|   -5.249737|   -5.084933|   -7.618157|    2.266425|
|         367|  5.3745e+00|   -4.794327|   -4.876055|   -5.461916|   -5.249669|   -5.084724|   -7.618234|    2.266162|
|         368|  5.3743e+00|   -4.794168|   -4.875817|   -5.461910|   -5.249604|   -5.084519|   -7.618312|    2.265900|
|         369|  5.3741e+00|   -4.794013|   -4.875584|   -5.461907|   -5.249543|   -5.084318|   -7.618391|    2.265636|
|         370|  5.3738e+00|   -4.793862|   -4.875354|   -5.461904|   -5.249484|   -5.084119|   -7.618470|    2.265373|
|         371|  5.3735e+00|   -4.793714|   -4.875127|   -5.461902|   -5.249427|   -5.083922|   -7.618549|    2.265110|
|         372|  5.3733e+00|   -4.793567|   -4.874902|   -5.461901|   -5.249372|   -5.083725|   -7.618629|    2.264847|
|         373|  5.3732e+00|   -4.793423|   -4.874680|   -5.461900|   -5.249317|   -5.083530|   -7.618709|    2.264583|
|         374|  5.3732e+00|   -4.793281|   -4.874460|   -5.461900|   -5.249264|   -5.083335|   -7.618789|    2.264320|
|         375|  5.3730e+00|   -4.793141|   -4.874242|   -5.461901|   -5.249212|   -5.083142|   -7.618869|    2.264056|
|         376|  5.3728e+00|   -4.793003|   -4.874028|   -5.461903|   -5.249162|   -5.082951|   -7.618950|    2.263792|
|         377|  5.3725e+00|   -4.792869|   -4.873817|   -5.461906|   -5.249115|   -5.082762|   -7.619032|    2.263529|
|         378|  5.3723e+00|   -4.792737|   -4.873609|   -5.461910|   -5.249069|   -5.082575|   -7.619114|    2.263265|
|         379|  5.3722e+00|   -4.792608|   -4.873403|   -5.461915|   -5.249025|   -5.082389|   -7.619196|    2.263001|
|         380|  5.3721e+00|   -4.792482|   -4.873200|   -5.461922|   -5.248983|   -5.082205|   -7.619279|    2.262736|
|         381|  5.3719e+00|   -4.792359|   -4.873001|   -5.461930|   -5.248945|   -5.082024|   -7.619362|    2.262472|
|         382|  5.3716e+00|   -4.792239|   -4.872805|   -5.461939|   -5.248908|   -5.081845|   -7.619445|    2.262208|
|         383|  5.3715e+00|   -4.792122|   -4.872613|   -5.461951|   -5.248876|   -5.081668|   -7.619528|    2.261943|
|         384|  5.3711e+00|   -4.792008|   -4.872424|   -5.461963|   -5.248846|   -5.081494|   -7.619611|    2.261679|
|         385|  5.3710e+00|   -4.791897|   -4.872239|   -5.461978|   -5.248818|   -5.081322|   -7.619695|    2.261414|
|         386|  5.3709e+00|   -4.791788|   -4.872056|   -5.461994|   -5.248793|   -5.081153|   -7.619778|    2.261149|
|         387|  5.3708e+00|   -4.791683|   -4.871877|   -5.462011|   -5.248770|   -5.080986|   -7.619862|    2.260885|
|         388|  5.3705e+00|   -4.791582|   -4.871701|   -5.462031|   -5.248750|   -5.080822|   -7.619945|    2.260620|
|         389|  5.3703e+00|   -4.791484|   -4.871528|   -5.462053|   -5.248734|   -5.080660|   -7.620029|    2.260355|
|         390|  5.3701e+00|   -4.791388|   -4.871358|   -5.462076|   -5.248719|   -5.080500|   -7.620113|    2.260090|
|         391|  5.3700e+00|   -4.791294|   -4.871190|   -5.462100|   -5.248706|   -5.080342|   -7.620196|    2.259825|
|         392|  5.3698e+00|   -4.791204|   -4.871026|   -5.462127|   -5.248696|   -5.080186|   -7.620280|    2.259559|
|         393|  5.3693e+00|   -4.791117|   -4.870866|   -5.462157|   -5.248689|   -5.080035|   -7.620364|    2.259294|
|         394|  5.3690e+00|   -4.791034|   -4.870709|   -5.462187|   -5.248685|   -5.079886|   -7.620447|    2.259029|
|         395|  5.3687e+00|   -4.790954|   -4.870555|   -5.462219|   -5.248684|   -5.079740|   -7.620530|    2.258764|
|         396|  5.3684e+00|   -4.790878|   -4.870406|   -5.462254|   -5.248688|   -5.079598|   -7.620614|    2.258498|
|         397|  5.3682e+00|   -4.790805|   -4.870260|   -5.462290|   -5.248694|   -5.079458|   -7.620696|    2.258233|
|         398|  5.3679e+00|   -4.790736|   -4.870117|   -5.462328|   -5.248704|   -5.079321|   -7.620779|    2.257968|
|         399|  5.3677e+00|   -4.790670|   -4.869979|   -5.462368|   -5.248717|   -5.079188|   -7.620861|    2.257702|
|         400|  5.3675e+00|   -4.790608|   -4.869844|   -5.462410|   -5.248733|   -5.079057|   -7.620943|    2.257437|
|         401|  5.3673e+00|   -4.790549|   -4.869712|   -5.462453|   -5.248752|   -5.078930|   -7.621025|    2.257172|
|         402|  5.3671e+00|   -4.790494|   -4.869583|   -5.462498|   -5.248774|   -5.078805|   -7.621106|    2.256906|
|         403|  5.3667e+00|   -4.790442|   -4.869458|   -5.462543|   -5.248799|   -5.078684|   -7.621187|    2.256641|
|         404|  5.3663e+00|   -4.790393|   -4.869336|   -5.462589|   -5.248827|   -5.078565|   -7.621268|    2.256376|
|         405|  5.3660e+00|   -4.790349|   -4.869219|   -5.462638|   -5.248859|   -5.078450|   -7.621348|    2.256111|
|         406|  5.3658e+00|   -4.790309|   -4.869106|   -5.462687|   -5.248895|   -5.078339|   -7.621428|    2.255845|
|         407|  5.3655e+00|   -4.790272|   -4.868996|   -5.462739|   -5.248934|   -5.078231|   -7.621507|    2.255580|
|         408|  5.3650e+00|   -4.790239|   -4.868890|   -5.462792|   -5.248976|   -5.078127|   -7.621586|    2.255315|
|         409|  5.3647e+00|   -4.790210|   -4.868787|   -5.462846|   -5.249021|   -5.078026|   -7.621664|    2.255050|
|         410|  5.3644e+00|   -4.790185|   -4.868688|   -5.462903|   -5.249071|   -5.077928|   -7.621742|    2.254786|
|         411|  5.3641e+00|   -4.790164|   -4.868593|   -5.462961|   -5.249124|   -5.077834|   -7.621819|    2.254521|
|         412|  5.3637e+00|   -4.790150|   -4.868504|   -5.463022|   -5.249187|   -5.077748|   -7.621896|    2.254256|
|         413|  5.3634e+00|   -4.790141|   -4.868420|   -5.463084|   -5.249254|   -5.077666|   -7.621972|    2.253992|
|         414|  5.3631e+00|   -4.790135|   -4.868339|   -5.463148|   -5.249324|   -5.077586|   -7.622047|    2.253728|
|         415|  5.3629e+00|   -4.790132|   -4.868262|   -5.463213|   -5.249396|   -5.077509|   -7.622122|    2.253463|
|         416|  5.3624e+00|   -4.790132|   -4.868188|   -5.463281|   -5.249472|   -5.077435|   -7.622196|    2.253199|
|         417|  5.3621e+00|   -4.790136|   -4.868119|   -5.463351|   -5.249550|   -5.077364|   -7.622270|    2.252936|
|         418|  5.3618e+00|   -4.790143|   -4.868054|   -5.463424|   -5.249632|   -5.077297|   -7.622343|    2.252672|
|         419|  5.3614e+00|   -4.790153|   -4.867990|   -5.463498|   -5.249712|   -5.077230|   -7.622415|    2.252409|
|         420|  5.3612e+00|   -4.790165|   -4.867930|   -5.463574|   -5.249794|   -5.077167|   -7.622486|    2.252146|
|         421|  5.3609e+00|   -4.790181|   -4.867873|   -5.463651|   -5.249879|   -5.077106|   -7.622557|    2.251883|
|         422|  5.3606e+00|   -4.790200|   -4.867820|   -5.463729|   -5.249967|   -5.077047|   -7.622628|    2.251620|
|         423|  5.3603e+00|   -4.790221|   -4.867770|   -5.463809|   -5.250056|   -5.076991|   -7.622697|    2.251358|
|         424|  5.3600e+00|   -4.790246|   -4.867724|   -5.463889|   -5.250149|   -5.076939|   -7.622766|    2.251096|
|         425|  5.3599e+00|   -4.790276|   -4.867683|   -5.463971|   -5.250245|   -5.076891|   -7.622834|    2.250834|
|         426|  5.3596e+00|   -4.790309|   -4.867645|   -5.464055|   -5.250343|   -5.076846|   -7.622901|    2.250572|
|         427|  5.3593e+00|   -4.790345|   -4.867610|   -5.464141|   -5.250445|   -5.076804|   -7.622968|    2.250311|
|         428|  5.3589e+00|   -4.790385|   -4.867579|   -5.464229|   -5.250548|   -5.076764|   -7.623033|    2.250051|
|         429|  5.3587e+00|   -4.790428|   -4.867551|   -5.464319|   -5.250655|   -5.076728|   -7.623098|    2.249790|
|         430|  5.3585e+00|   -4.790475|   -4.867526|   -5.464412|   -5.250764|   -5.076695|   -7.623162|    2.249530|
|         431|  5.3582e+00|   -4.790526|   -4.867505|   -5.464507|   -5.250876|   -5.076666|   -7.623224|    2.249270|
|         432|  5.3579e+00|   -4.790580|   -4.867486|   -5.464604|   -5.250991|   -5.076640|   -7.623286|    2.249011|
|         433|  5.3576e+00|   -4.790637|   -4.867472|   -5.464703|   -5.251108|   -5.076616|   -7.623346|    2.248752|
|         434|  5.3573e+00|   -4.790696|   -4.867460|   -5.464804|   -5.251228|   -5.076595|   -7.623405|    2.248493|
|         435|  5.3569e+00|   -4.790760|   -4.867453|   -5.464909|   -5.251352|   -5.076577|   -7.623464|    2.248235|
|         436|  5.3567e+00|   -4.790828|   -4.867449|   -5.465018|   -5.251479|   -5.076565|   -7.623522|    2.247978|
|         437|  5.3565e+00|   -4.790900|   -4.867449|   -5.465129|   -5.251609|   -5.076554|   -7.623579|    2.247720|
|         438|  5.3563e+00|   -4.790975|   -4.867453|   -5.465242|   -5.251742|   -5.076548|   -7.623635|    2.247464|
|         439|  5.3560e+00|   -4.791055|   -4.867461|   -5.465359|   -5.251879|   -5.076545|   -7.623690|    2.247207|
|         440|  5.3557e+00|   -4.791138|   -4.867473|   -5.465479|   -5.252020|   -5.076547|   -7.623745|    2.246952|
|         441|  5.3554e+00|   -4.791226|   -4.867490|   -5.465603|   -5.252163|   -5.076553|   -7.623798|    2.246696|
|         442|  5.3552e+00|   -4.791317|   -4.867509|   -5.465727|   -5.252308|   -5.076561|   -7.623851|    2.246442|
|         443|  5.3549e+00|   -4.791411|   -4.867533|   -5.465854|   -5.252456|   -5.076572|   -7.623902|    2.246187|
|         444|  5.3547e+00|   -4.791509|   -4.867560|   -5.465982|   -5.252607|   -5.076586|   -7.623952|    2.245934|
|         445|  5.3544e+00|   -4.791610|   -4.867591|   -5.466113|   -5.252761|   -5.076604|   -7.624002|    2.245680|
|         446|  5.3540e+00|   -4.791714|   -4.867626|   -5.466247|   -5.252918|   -5.076625|   -7.624050|    2.245428|
|         447|  5.3538e+00|   -4.791822|   -4.867665|   -5.466382|   -5.253078|   -5.076649|   -7.624098|    2.245176|
|         448|  5.3536e+00|   -4.791933|   -4.867708|   -5.466520|   -5.253243|   -5.076677|   -7.624145|    2.244924|
|         449|  5.3533e+00|   -4.792047|   -4.867755|   -5.466660|   -5.253410|   -5.076707|   -7.624190|    2.244673|
|         450|  5.3531e+00|   -4.792164|   -4.867805|   -5.466802|   -5.253580|   -5.076740|   -7.624235|    2.244423|
+-----------------------------------------------------------------------+
|        File Writing Summary       |              Filename             |
+-----------------------------------------------------------------------+
|SU2 binary restart                 |restart_flow.dat                   |
|Paraview                           |flow.vtu                           |
|Paraview surface                   |surface_flow.vtu                   |
+-----------------------------------------------------------------------+
+--------------------------------------------------------------------------------------------------------------------+
|  Inner_Iter|   Time(sec)|    rms[Rho]|   rms[RhoU]|   rms[RhoV]|   rms[RhoW]|   rms[RhoE]|     rms[nu]|          CD|
+--------------------------------------------------------------------------------------------------------------------+
|         451|  5.4002e+00|   -4.792285|   -4.867859|   -5.466946|   -5.253753|   -5.076777|   -7.624279|    2.244174|
|         452|  5.4007e+00|   -4.792410|   -4.867918|   -5.467094|   -5.253930|   -5.076818|   -7.624322|    2.243925|
|         453|  5.4010e+00|   -4.792538|   -4.867981|   -5.467246|   -5.254110|   -5.076863|   -7.624364|    2.243676|
|         454|  5.4010e+00|   -4.792670|   -4.868048|   -5.467399|   -5.254293|   -5.076911|   -7.624404|    2.243429|
|         455|  5.4008e+00|   -4.792805|   -4.868119|   -5.467553|   -5.254478|   -5.076961|   -7.624444|    2.243181|
|         456|  5.4006e+00|   -4.792943|   -4.868193|   -5.467708|   -5.254665|   -5.077014|   -7.624483|    2.242935|
|         457|  5.4005e+00|   -4.793084|   -4.868272|   -5.467866|   -5.254855|   -5.077070|   -7.624521|    2.242689|
|         458|  5.4003e+00|   -4.793229|   -4.868354|   -5.468025|   -5.255047|   -5.077130|   -7.624558|    2.242444|
|         459|  5.4001e+00|   -4.793376|   -4.868440|   -5.468185|   -5.255241|   -5.077192|   -7.624594|    2.242200|
|         460|  5.4000e+00|   -4.793527|   -4.868531|   -5.468345|   -5.255438|   -5.077257|   -7.624629|    2.241956|
|         461|  5.3998e+00|   -4.793683|   -4.868627|   -5.468508|   -5.255640|   -5.077328|   -7.624663|    2.241714|
|         462|  5.3995e+00|   -4.793842|   -4.868727|   -5.468672|   -5.255845|   -5.077402|   -7.624696|    2.241471|
|         463|  5.3993e+00|   -4.794005|   -4.868831|   -5.468838|   -5.256052|   -5.077479|   -7.624728|    2.241230|
|         464|  5.3990e+00|   -4.794171|   -4.868939|   -5.469006|   -5.256262|   -5.077560|   -7.624759|    2.240989|
|         465|  5.3986e+00|   -4.794341|   -4.869052|   -5.469175|   -5.256474|   -5.077644|   -7.624789|    2.240749|
|         466|  5.3981e+00|   -4.794513|   -4.869168|   -5.469345|   -5.256689|   -5.077730|   -7.624818|    2.240510|
|         467|  5.3979e+00|   -4.794689|   -4.869288|   -5.469516|   -5.256906|   -5.077820|   -7.624846|    2.240272|
|         468|  5.3975e+00|   -4.794867|   -4.869412|   -5.469688|   -5.257125|   -5.077913|   -7.624873|    2.240034|
|         469|  5.3974e+00|   -4.795050|   -4.869540|   -5.469859|   -5.257347|   -5.078009|   -7.624899|    2.239798|
|         470|  5.3972e+00|   -4.795238|   -4.869675|   -5.470029|   -5.257572|   -5.078111|   -7.624925|    2.239562|
|         471|  5.3970e+00|   -4.795431|   -4.869815|   -5.470200|   -5.257800|   -5.078217|   -7.624949|    2.239327|
|         472|  5.3967e+00|   -4.795628|   -4.869958|   -5.470371|   -5.258030|   -5.078327|   -7.624972|    2.239092|
|         473|  5.3965e+00|   -4.795828|   -4.870106|   -5.470543|   -5.258264|   -5.078440|   -7.624994|    2.238859|
|         474|  5.3962e+00|   -4.796031|   -4.870257|   -5.470717|   -5.258501|   -5.078556|   -7.625016|    2.238626|
|         475|  5.3959e+00|   -4.796239|   -4.870412|   -5.470893|   -5.258741|   -5.078676|   -7.625036|    2.238395|
|         476|  5.3955e+00|   -4.796451|   -4.870573|   -5.471070|   -5.258984|   -5.078800|   -7.625055|    2.238164|
|         477|  5.3954e+00|   -4.796668|   -4.870738|   -5.471250|   -5.259231|   -5.078929|   -7.625074|    2.237934|
|         478|  5.3952e+00|   -4.796888|   -4.870908|   -5.471430|   -5.259481|   -5.079062|   -7.625091|    2.237705|
|         479|  5.3950e+00|   -4.797113|   -4.871083|   -5.471612|   -5.259733|   -5.079198|   -7.625108|    2.237477|
|         480|  5.3947e+00|   -4.797341|   -4.871261|   -5.471794|   -5.259988|   -5.079338|   -7.625123|    2.237249|
|         481|  5.3944e+00|   -4.797573|   -4.871443|   -5.471977|   -5.260245|   -5.079480|   -7.625137|    2.237023|
|         482|  5.3943e+00|   -4.797807|   -4.871629|   -5.472162|   -5.260504|   -5.079625|   -7.625151|    2.236798|
|         483|  5.3941e+00|   -4.798044|   -4.871819|   -5.472348|   -5.260764|   -5.079772|   -7.625163|    2.236573|
|         484|  5.3937e+00|   -4.798286|   -4.872014|   -5.472537|   -5.261028|   -5.079925|   -7.625174|    2.236350|
|         485|  5.3935e+00|   -4.798531|   -4.872213|   -5.472727|   -5.261295|   -5.080080|   -7.625184|    2.236127|
|         486|  5.3933e+00|   -4.798780|   -4.872416|   -5.472919|   -5.261565|   -5.080239|   -7.625194|    2.235906|
|         487|  5.3931e+00|   -4.799032|   -4.872623|   -5.473112|   -5.261837|   -5.080401|   -7.625202|    2.235685|
|         488|  5.3928e+00|   -4.799286|   -4.872832|   -5.473306|   -5.262112|   -5.080565|   -7.625209|    2.235466|
|         489|  5.3925e+00|   -4.799544|   -4.873045|   -5.473500|   -5.262389|   -5.080732|   -7.625216|    2.235247|
|         490|  5.3923e+00|   -4.799805|   -4.873262|   -5.473697|   -5.262667|   -5.080902|   -7.625221|    2.235030|
|         491|  5.3920e+00|   -4.800067|   -4.873481|   -5.473894|   -5.262948|   -5.081073|   -7.625225|    2.234813|
|         492|  5.3917e+00|   -4.800333|   -4.873704|   -5.474093|   -5.263231|   -5.081247|   -7.625229|    2.234598|
|         493|  5.3913e+00|   -4.800600|   -4.873929|   -5.474291|   -5.263516|   -5.081423|   -7.625232|    2.234383|
|         494|  5.3910e+00|   -4.800869|   -4.874158|   -5.474491|   -5.263803|   -5.081601|   -7.625233|    2.234170|
|         495|  5.3906e+00|   -4.801141|   -4.874390|   -5.474691|   -5.264092|   -5.081782|   -7.625234|    2.233958|
|         496|  5.3903e+00|   -4.801418|   -4.874626|   -5.474894|   -5.264385|   -5.081966|   -7.625234|    2.233747|
|         497|  5.3899e+00|   -4.801696|   -4.874865|   -5.475098|   -5.264680|   -5.082153|   -7.625232|    2.233537|
|         498|  5.3896e+00|   -4.801976|   -4.875106|   -5.475303|   -5.264978|   -5.082342|   -7.625230|    2.233328|
|         499|  5.3895e+00|   -4.802258|   -4.875350|   -5.475507|   -5.265276|   -5.082532|   -7.625227|    2.233120|
|         500|  5.3893e+00|   -4.802542|   -4.875597|   -5.475713|   -5.265577|   -5.082723|   -7.625223|    2.232914|
|         501|  5.3891e+00|   -4.802827|   -4.875848|   -5.475920|   -5.265880|   -5.082917|   -7.625218|    2.232708|
|         502|  5.3888e+00|   -4.803115|   -4.876101|   -5.476129|   -5.266185|   -5.083114|   -7.625212|    2.232504|
|         503|  5.3884e+00|   -4.803406|   -4.876357|   -5.476339|   -5.266491|   -5.083312|   -7.625205|    2.232301|
|         504|  5.3882e+00|   -4.803697|   -4.876616|   -5.476548|   -5.266798|   -5.083512|   -7.625197|    2.232099|
|         505|  5.3879e+00|   -4.803991|   -4.876877|   -5.476759|   -5.267107|   -5.083714|   -7.625188|    2.231898|
|         506|  5.3879e+00|   -4.804286|   -4.877141|   -5.476971|   -5.267418|   -5.083917|   -7.625179|    2.231699|
|         507|  5.3875e+00|   -4.804584|   -4.877408|   -5.477184|   -5.267731|   -5.084123|   -7.625168|    2.231500|
|         508|  5.3871e+00|   -4.804884|   -4.877677|   -5.477398|   -5.268044|   -5.084331|   -7.625157|    2.231303|
|         509|  5.3869e+00|   -4.805186|   -4.877949|   -5.477613|   -5.268360|   -5.084541|   -7.625145|    2.231108|
|         510|  5.3867e+00|   -4.805491|   -4.878223|   -5.477830|   -5.268676|   -5.084753|   -7.625132|    2.230913|
|         511|  5.3863e+00|   -4.805798|   -4.878500|   -5.478049|   -5.268994|   -5.084967|   -7.625118|    2.230720|
|         512|  5.3860e+00|   -4.806108|   -4.878780|   -5.478270|   -5.269313|   -5.085185|   -7.625103|    2.230528|
|         513|  5.3857e+00|   -4.806421|   -4.879063|   -5.478491|   -5.269635|   -5.085405|   -7.625087|    2.230337|
|         514|  5.3855e+00|   -4.806738|   -4.879350|   -5.478714|   -5.269957|   -5.085629|   -7.625071|    2.230148|
|         515|  5.3853e+00|   -4.807058|   -4.879639|   -5.478938|   -5.270281|   -5.085855|   -7.625053|    2.229960|
|         516|  5.3849e+00|   -4.807380|   -4.879931|   -5.479165|   -5.270606|   -5.086084|   -7.625035|    2.229773|
|         517|  5.3847e+00|   -4.807704|   -4.880225|   -5.479392|   -5.270931|   -5.086314|   -7.625016|    2.229588|
|         518|  5.3845e+00|   -4.808032|   -4.880523|   -5.479621|   -5.271257|   -5.086548|   -7.624996|    2.229404|
|         519|  5.3842e+00|   -4.808364|   -4.880823|   -5.479852|   -5.271586|   -5.086785|   -7.624975|    2.229222|
|         520|  5.3839e+00|   -4.808698|   -4.881127|   -5.480084|   -5.271916|   -5.087024|   -7.624953|    2.229041|
|         521|  5.3837e+00|   -4.809036|   -4.881436|   -5.480319|   -5.272248|   -5.087267|   -7.624931|    2.228861|
|         522|  5.3834e+00|   -4.809377|   -4.881747|   -5.480554|   -5.272581|   -5.087513|   -7.624908|    2.228683|
|         523|  5.3832e+00|   -4.809721|   -4.882063|   -5.480791|   -5.272916|   -5.087762|   -7.624884|    2.228506|
|         524|  5.3830e+00|   -4.810068|   -4.882381|   -5.481029|   -5.273251|   -5.088014|   -7.624859|    2.228331|
|         525|  5.3827e+00|   -4.810419|   -4.882704|   -5.481269|   -5.273590|   -5.088269|   -7.624833|    2.228157|
|         526|  5.3826e+00|   -4.810774|   -4.883030|   -5.481511|   -5.273930|   -5.088528|   -7.624807|    2.227984|
|         527|  5.3825e+00|   -4.811133|   -4.883361|   -5.481755|   -5.274272|   -5.088791|   -7.624780|    2.227813|
|         528|  5.3823e+00|   -4.811495|   -4.883694|   -5.482000|   -5.274617|   -5.089057|   -7.624752|    2.227644|
|         529|  5.3820e+00|   -4.811860|   -4.884032|   -5.482246|   -5.274962|   -5.089325|   -7.624723|    2.227476|
|         530|  5.3818e+00|   -4.812227|   -4.884373|   -5.482493|   -5.275310|   -5.089596|   -7.624694|    2.227309|
|         531|  5.3816e+00|   -4.812598|   -4.884717|   -5.482743|   -5.275659|   -5.089870|   -7.624663|    2.227144|
|         532|  5.3815e+00|   -4.812971|   -4.885066|   -5.482996|   -5.276010|   -5.090148|   -7.624632|    2.226981|
|         533|  5.3813e+00|   -4.813348|   -4.885419|   -5.483248|   -5.276362|   -5.090428|   -7.624600|    2.226819|
|         534|  5.3811e+00|   -4.813728|   -4.885775|   -5.483503|   -5.276715|   -5.090712|   -7.624567|    2.226659|
|         535|  5.3808e+00|   -4.814110|   -4.886135|   -5.483758|   -5.277070|   -5.090998|   -7.624533|    2.226500|
|         536|  5.3806e+00|   -4.814496|   -4.886500|   -5.484015|   -5.277426|   -5.091288|   -7.624498|    2.226343|
|         537|  5.3803e+00|   -4.814885|   -4.886868|   -5.484273|   -5.277783|   -5.091580|   -7.624463|    2.226187|
|         538|  5.3801e+00|   -4.815277|   -4.887239|   -5.484532|   -5.278142|   -5.091876|   -7.624427|    2.226033|
[...]
|        8524|  5.4462e+00|   -4.891378|   -4.990564|   -5.527135|   -5.439959|   -5.167090|   -7.560357|    2.338130|
|        8525|  5.4461e+00|   -4.891245|   -4.990288|   -5.526862|   -5.440297|   -5.166920|   -7.560457|    2.337664|
|        8526|  5.4461e+00|   -4.891107|   -4.990006|   -5.526587|   -5.440637|   -5.166746|   -7.560556|    2.337197|
|        8527|  5.4461e+00|   -4.890963|   -4.989717|   -5.526310|   -5.440976|   -5.166566|   -7.560653|    2.336731|
|        8528|  5.4461e+00|   -4.890812|   -4.989419|   -5.526031|   -5.441314|   -5.166381|   -7.560748|    2.336265|
|        8529|  5.4461e+00|   -4.890654|   -4.989112|   -5.525751|   -5.441650|   -5.166190|   -7.560843|    2.335798|
|        8530|  5.4460e+00|   -4.890491|   -4.988799|   -5.525468|   -5.441987|   -5.165996|   -7.560936|    2.335332|
|        8531|  5.4460e+00|   -4.890326|   -4.988481|   -5.525188|   -5.442327|   -5.165802|   -7.561027|    2.334865|
|        8532|  5.4460e+00|   -4.890156|   -4.988155|   -5.524908|   -5.442665|   -5.165603|   -7.561117|    2.334399|
|        8533|  5.4460e+00|   -4.889980|   -4.987822|   -5.524624|   -5.443003|   -5.165401|   -7.561207|    2.333933|
|        8534|  5.4460e+00|   -4.889797|   -4.987481|   -5.524335|   -5.443338|   -5.165191|   -7.561294|    2.333466|
|        8535|  5.4459e+00|   -4.889610|   -4.987132|   -5.524047|   -5.443672|   -5.164979|   -7.561381|    2.333000|
|        8536|  5.4459e+00|   -4.889419|   -4.986778|   -5.523762|   -5.444006|   -5.164765|   -7.561466|    2.332534|
|        8537|  5.4459e+00|   -4.889222|   -4.986416|   -5.523474|   -5.444338|   -5.164545|   -7.561550|    2.332068|
|        8538|  5.4459e+00|   -4.889018|   -4.986046|   -5.523180|   -5.444668|   -5.164320|   -7.561633|    2.331602|
|        8539|  5.4459e+00|   -4.888808|   -4.985669|   -5.522886|   -5.444993|   -5.164089|   -7.561714|    2.331136|
|        8540|  5.4458e+00|   -4.888591|   -4.985284|   -5.522592|   -5.445316|   -5.163853|   -7.561794|    2.330670|
|        8541|  5.4458e+00|   -4.888368|   -4.984891|   -5.522296|   -5.445636|   -5.163613|   -7.561873|    2.330204|
|        8542|  5.4458e+00|   -4.888139|   -4.984489|   -5.521996|   -5.445953|   -5.163367|   -7.561950|    2.329738|
|        8543|  5.4458e+00|   -4.887902|   -4.984078|   -5.521696|   -5.446268|   -5.163115|   -7.562026|    2.329272|
|        8544|  5.4458e+00|   -4.887659|   -4.983660|   -5.521393|   -5.446579|   -5.162857|   -7.562100|    2.328807|
|        8545|  5.4458e+00|   -4.887410|   -4.983234|   -5.521088|   -5.446888|   -5.162595|   -7.562173|    2.328342|
|        8546|  5.4457e+00|   -4.887153|   -4.982800|   -5.520778|   -5.447192|   -5.162326|   -7.562245|    2.327876|
|        8547|  5.4457e+00|   -4.886889|   -4.982357|   -5.520463|   -5.447491|   -5.162051|   -7.562316|    2.327411|
|        8548|  5.4457e+00|   -4.886619|   -4.981907|   -5.520146|   -5.447788|   -5.161771|   -7.562385|    2.326946|
|        8549|  5.4457e+00|   -4.886343|   -4.981452|   -5.519825|   -5.448080|   -5.161487|   -7.562453|    2.326482|
|        8550|  5.4457e+00|   -4.886060|   -4.980989|   -5.519501|   -5.448367|   -5.161196|   -7.562520|    2.326017|
+-----------------------------------------------------------------------+
|        File Writing Summary       |              Filename             |
+-----------------------------------------------------------------------+
|SU2 binary restart                 |restart_flow.dat                   |
|Paraview                           |flow.vtu                           |
|Paraview surface                   |surface_flow.vtu                   |
+-----------------------------------------------------------------------+
+--------------------------------------------------------------------------------------------------------------------+
|  Inner_Iter|   Time(sec)|    rms[Rho]|   rms[RhoU]|   rms[RhoV]|   rms[RhoW]|   rms[RhoE]|     rms[nu]|          CD|
+--------------------------------------------------------------------------------------------------------------------+
|        8551|  5.4489e+00|   -4.885770|   -4.980518|   -5.519175|   -5.448649|   -5.160901|   -7.562585|    2.325553|
|        8552|  5.4489e+00|   -4.885473|   -4.980040|   -5.518844|   -5.448927|   -5.160600|   -7.562649|    2.325088|
|        8553|  5.4489e+00|   -4.885168|   -4.979553|   -5.518509|   -5.449198|   -5.160292|   -7.562712|    2.324624|
|        8554|  5.4489e+00|   -4.884854|   -4.979057|   -5.518168|   -5.449464|   -5.159976|   -7.562774|    2.324161|
|        8555|  5.4489e+00|   -4.884530|   -4.978552|   -5.517819|   -5.449722|   -5.159651|   -7.562835|    2.323697|
|        8556|  5.4489e+00|   -4.884199|   -4.978038|   -5.517466|   -5.449976|   -5.159322|   -7.562895|    2.323234|
|        8557|  5.4488e+00|   -4.883860|   -4.977516|   -5.517109|   -5.450224|   -5.158986|   -7.562953|    2.322771|
|        8558|  5.4488e+00|   -4.883513|   -4.976983|   -5.516746|   -5.450467|   -5.158642|   -7.563011|    2.322308|
|        8559|  5.4488e+00|   -4.883157|   -4.976442|   -5.516376|   -5.450704|   -5.158291|   -7.563067|    2.321845|
|        8560|  5.4488e+00|   -4.882795|   -4.975893|   -5.516001|   -5.450936|   -5.157935|   -7.563122|    2.321383|
|        8561|  5.4488e+00|   -4.882424|   -4.975335|   -5.515626|   -5.451161|   -5.157572|   -7.563176|    2.320921|
|        8562|  5.4488e+00|   -4.882047|   -4.974769|   -5.515246|   -5.451381|   -5.157204|   -7.563229|    2.320460|
|        8563|  5.4488e+00|   -4.881661|   -4.974193|   -5.514861|   -5.451596|   -5.156828|   -7.563280|    2.319998|
|        8564|  5.4488e+00|   -4.881267|   -4.973608|   -5.514471|   -5.451804|   -5.156446|   -7.563331|    2.319538|
|        8565|  5.4488e+00|   -4.880865|   -4.973015|   -5.514078|   -5.452009|   -5.156058|   -7.563381|    2.319077|
|        8566|  5.4487e+00|   -4.880456|   -4.972413|   -5.513683|   -5.452209|   -5.155664|   -7.563429|    2.318617|
|        8567|  5.4487e+00|   -4.880045|   -4.971810|   -5.513288|   -5.452410|   -5.155270|   -7.563476|    2.318157|
|        8568|  5.4487e+00|   -4.879626|   -4.971198|   -5.512888|   -5.452605|   -5.154868|   -7.563523|    2.317697|
|        8569|  5.4487e+00|   -4.879200|   -4.970578|   -5.512487|   -5.452797|   -5.154462|   -7.563568|    2.317238|
|        8570|  5.4487e+00|   -4.878766|   -4.969950|   -5.512085|   -5.452983|   -5.154049|   -7.563613|    2.316779|
|        8571|  5.4487e+00|   -4.878324|   -4.969312|   -5.511680|   -5.453164|   -5.153630|   -7.563656|    2.316321|
|        8572|  5.4487e+00|   -4.877875|   -4.968666|   -5.511273|   -5.453339|   -5.153205|   -7.563699|    2.315863|
|        8573|  5.4487e+00|   -4.877418|   -4.968010|   -5.510863|   -5.453508|   -5.152773|   -7.563740|    2.315406|
|        8574|  5.4486e+00|   -4.876953|   -4.967346|   -5.510448|   -5.453672|   -5.152334|   -7.563781|    2.314949|
|        8575|  5.4486e+00|   -4.876480|   -4.966673|   -5.510030|   -5.453830|   -5.151889|   -7.563821|    2.314492|
|        8576|  5.4486e+00|   -4.876001|   -4.965992|   -5.509611|   -5.453986|   -5.151440|   -7.563859|    2.314036|
|        8577|  5.4486e+00|   -4.875516|   -4.965304|   -5.509192|   -5.454137|   -5.150985|   -7.563897|    2.313581|
|        8578|  5.4486e+00|   -4.875024|   -4.964606|   -5.508771|   -5.454283|   -5.150524|   -7.563935|    2.313126|
|        8579|  5.4486e+00|   -4.874525|   -4.963901|   -5.508349|   -5.454425|   -5.150059|   -7.563971|    2.312671|
|        8580|  5.4486e+00|   -4.874019|   -4.963190|   -5.507921|   -5.454560|   -5.149587|   -7.564007|    2.312217|
|        8581|  5.4485e+00|   -4.873506|   -4.962470|   -5.507489|   -5.454690|   -5.149110|   -7.564042|    2.311763|
|        8582|  5.4485e+00|   -4.872983|   -4.961741|   -5.507051|   -5.454814|   -5.148624|   -7.564076|    2.311310|
|        8583|  5.4485e+00|   -4.872454|   -4.961003|   -5.506612|   -5.454933|   -5.148133|   -7.564110|    2.310858|
|        8584|  5.4485e+00|   -4.871918|   -4.960258|   -5.506175|   -5.455048|   -5.147637|   -7.564143|    2.310406|
|        8585|  5.4485e+00|   -4.871376|   -4.959505|   -5.505737|   -5.455159|   -5.147136|   -7.564175|    2.309954|
|        8586|  5.4485e+00|   -4.870825|   -4.958742|   -5.505292|   -5.455264|   -5.146627|   -7.564207|    2.309503|
|        8587|  5.4485e+00|   -4.870266|   -4.957972|   -5.504845|   -5.455365|   -5.146111|   -7.564238|    2.309053|
|        8588|  5.4484e+00|   -4.869701|   -4.957194|   -5.504396|   -5.455463|   -5.145589|   -7.564268|    2.308603|
|        8589|  5.4484e+00|   -4.869126|   -4.956407|   -5.503943|   -5.455554|   -5.145059|   -7.564297|    2.308154|
|        8590|  5.4484e+00|   -4.868542|   -4.955611|   -5.503487|   -5.455639|   -5.144520|   -7.564326|    2.307706|
|        8591|  5.4484e+00|   -4.867952|   -4.954807|   -5.503030|   -5.455721|   -5.143976|   -7.564355|    2.307258|
|        8592|  5.4484e+00|   -4.867356|   -4.953996|   -5.502579|   -5.455799|   -5.143428|   -7.564383|    2.306810|
|        8593|  5.4484e+00|   -4.866753|   -4.953178|   -5.502128|   -5.455874|   -5.142875|   -7.564411|    2.306364|
|        8594|  5.4484e+00|   -4.866144|   -4.952353|   -5.501676|   -5.455945|   -5.142316|   -7.564437|    2.305918|
|        8595|  5.4483e+00|   -4.865528|   -4.951521|   -5.501221|   -5.456012|   -5.141751|   -7.564464|    2.305472|
|        8596|  5.4483e+00|   -4.864905|   -4.950682|   -5.500767|   -5.456073|   -5.141181|   -7.564490|    2.305027|
|        8597|  5.4483e+00|   -4.864271|   -4.949830|   -5.500308|   -5.456128|   -5.140599|   -7.564516|    2.304583|
|        8598|  5.4483e+00|   -4.863629|   -4.948969|   -5.499847|   -5.456178|   -5.140010|   -7.564541|    2.304139|
|        8599|  5.4483e+00|   -4.862980|   -4.948101|   -5.499385|   -5.456223|   -5.139415|   -7.564566|    2.303697|
|        8600|  5.4483e+00|   -4.862327|   -4.947228|   -5.498928|   -5.456264|   -5.138818|   -7.564590|    2.303254|
|        8601|  5.4483e+00|   -4.861667|   -4.946348|   -5.498469|   -5.456300|   -5.138213|   -7.564614|    2.302813|
|        8602|  5.4482e+00|   -4.861000|   -4.945460|   -5.498010|   -5.456330|   -5.137603|   -7.564638|    2.302372|
|        8603|  5.4482e+00|   -4.860326|   -4.944566|   -5.497549|   -5.456355|   -5.136986|   -7.564661|    2.301931|
|        8604|  5.4482e+00|   -4.859646|   -4.943664|   -5.497090|   -5.456376|   -5.136364|   -7.564684|    2.301492|
|        8605|  5.4482e+00|   -4.858960|   -4.942757|   -5.496631|   -5.456392|   -5.135737|   -7.564707|    2.301053|
|        8606|  5.4482e+00|   -4.858267|   -4.941841|   -5.496169|   -5.456404|   -5.135103|   -7.564729|    2.300615|
|        8607|  5.4482e+00|   -4.857569|   -4.940921|   -5.495705|   -5.456412|   -5.134465|   -7.564751|    2.300177|
|        8608|  5.4481e+00|   -4.856867|   -4.939994|   -5.495243|   -5.456417|   -5.133823|   -7.564773|    2.299740|
|        8609|  5.4481e+00|   -4.856159|   -4.939063|   -5.494779|   -5.456417|   -5.133177|   -7.564795|    2.299304|
|        8610|  5.4481e+00|   -4.855447|   -4.938125|   -5.494315|   -5.456411|   -5.132526|   -7.564816|    2.298868|
|        8611|  5.4481e+00|   -4.854728|   -4.937182|   -5.493849|   -5.456399|   -5.131870|   -7.564838|    2.298433|
|        8612|  5.4481e+00|   -4.854005|   -4.936233|   -5.493380|   -5.456384|   -5.131208|   -7.564859|    2.297999|
|        8613|  5.4481e+00|   -4.853274|   -4.935277|   -5.492907|   -5.456361|   -5.130539|   -7.564879|    2.297566|
|        8614|  5.4480e+00|   -4.852537|   -4.934315|   -5.492432|   -5.456332|   -5.129864|   -7.564900|    2.297133|
|        8615|  5.4480e+00|   -4.851794|   -4.933348|   -5.491953|   -5.456296|   -5.129183|   -7.564920|    2.296701|
|        8616|  5.4480e+00|   -4.851047|   -4.932378|   -5.491473|   -5.456256|   -5.128498|   -7.564941|    2.296269|
|        8617|  5.4480e+00|   -4.850296|   -4.931402|   -5.490992|   -5.456210|   -5.127809|   -7.564961|    2.295839|
|        8618|  5.4480e+00|   -4.849541|   -4.930422|   -5.490511|   -5.456160|   -5.127116|   -7.564981|    2.295409|
|        8619|  5.4480e+00|   -4.848781|   -4.929438|   -5.490029|   -5.456104|   -5.126418|   -7.565001|    2.294979|
|        8620|  5.4479e+00|   -4.848017|   -4.928450|   -5.489547|   -5.456042|   -5.125717|   -7.565021|    2.294551|
|        8621|  5.4479e+00|   -4.847249|   -4.927458|   -5.489063|   -5.455975|   -5.125011|   -7.565040|    2.294123|
|        8622|  5.4479e+00|   -4.846476|   -4.926463|   -5.488578|   -5.455902|   -5.124301|   -7.565060|    2.293696|
|        8623|  5.4479e+00|   -4.845700|   -4.925464|   -5.488093|   -5.455824|   -5.123587|   -7.565080|    2.293269|
|        8624|  5.4479e+00|   -4.844920|   -4.924462|   -5.487608|   -5.455740|   -5.122869|   -7.565099|    2.292843|
|        8625|  5.4479e+00|   -4.844135|   -4.923455|   -5.487124|   -5.455650|   -5.122148|   -7.565119|    2.292418|
|        8626|  5.4478e+00|   -4.843348|   -4.922446|   -5.486639|   -5.455554|   -5.121422|   -7.565138|    2.291994|
|        8627|  5.4478e+00|   -4.842558|   -4.921433|   -5.486155|   -5.455454|   -5.120695|   -7.565158|    2.291570|
|        8628|  5.4478e+00|   -4.841765|   -4.920419|   -5.485671|   -5.455349|   -5.119965|   -7.565177|    2.291147|
|        8629|  5.4478e+00|   -4.840970|   -4.919402|   -5.485183|   -5.455238|   -5.119232|   -7.565196|    2.290725|
|        8630|  5.4478e+00|   -4.840171|   -4.918382|   -5.484693|   -5.455123|   -5.118494|   -7.565215|    2.290304|
|        8631|  5.4478e+00|   -4.839371|   -4.917361|   -5.484203|   -5.455002|   -5.117755|   -7.565234|    2.289883|
|        8632|  5.4477e+00|   -4.838569|   -4.916339|   -5.483714|   -5.454876|   -5.117015|   -7.565254|    2.289463|
|        8633|  5.4477e+00|   -4.837765|   -4.915315|   -5.483224|   -5.454744|   -5.116271|   -7.565273|    2.289043|
|        8634|  5.4477e+00|   -4.836959|   -4.914290|   -5.482733|   -5.454606|   -5.115525|   -7.565292|    2.288625|
|        8635|  5.4477e+00|   -4.836150|   -4.913262|   -5.482243|   -5.454463|   -5.114776|   -7.565312|    2.288207|
|        8636|  5.4477e+00|   -4.835340|   -4.912233|   -5.481754|   -5.454315|   -5.114025|   -7.565331|    2.287790|
|        8637|  5.4476e+00|   -4.834529|   -4.911203|   -5.481267|   -5.454161|   -5.113272|   -7.565351|    2.287373|
|        8638|  5.4476e+00|   -4.833716|   -4.910172|   -5.480778|   -5.454004|   -5.112517|   -7.565371|    2.286958|
|        8639|  5.4476e+00|   -4.832900|   -4.909140|   -5.480288|   -5.453840|   -5.111759|   -7.565390|    2.286543|
|        8640|  5.4476e+00|   -4.832084|   -4.908107|   -5.479798|   -5.453673|   -5.110999|   -7.565410|    2.286128|
|        8641|  5.4476e+00|   -4.831265|   -4.907073|   -5.479310|   -5.453501|   -5.110237|   -7.565430|    2.285715|
|        8642|  5.4476e+00|   -4.830446|   -4.906038|   -5.478822|   -5.453325|   -5.109472|   -7.565450|    2.285302|
|        8643|  5.4475e+00|   -4.829623|   -4.905001|   -5.478330|   -5.453144|   -5.108704|   -7.565469|    2.284890|
|        8644|  5.4475e+00|   -4.828800|   -4.903964|   -5.477839|   -5.452960|   -5.107934|   -7.565489|    2.284479|
|        8645|  5.4475e+00|   -4.827975|   -4.902926|   -5.477348|   -5.452772|   -5.107161|   -7.565509|    2.284069|
|        8646|  5.4475e+00|   -4.827149|   -4.901887|   -5.476856|   -5.452579|   -5.106387|   -7.565529|    2.283659|
|        8647|  5.4475e+00|   -4.826321|   -4.900849|   -5.476364|   -5.452382|   -5.105611|   -7.565549|    2.283251|
|        8648|  5.4475e+00|   -4.825492|   -4.899809|   -5.475871|   -5.452182|   -5.104833|   -7.565569|    2.282843|
|        8649|  5.4475e+00|   -4.824662|   -4.898769|   -5.475380|   -5.451977|   -5.104052|   -7.565590|    2.282435|
|        8650|  5.4475e+00|   -4.823830|   -4.897728|   -5.474887|   -5.451768|   -5.103270|   -7.565610|    2.282029|
|        8651|  5.4475e+00|   -4.822998|   -4.896688|   -5.474395|   -5.451555|   -5.102486|   -7.565631|    2.281623|
|        8652|  5.4474e+00|   -4.822167|   -4.895650|   -5.473903|   -5.451342|   -5.101704|   -7.565651|    2.281219|
|        8653|  5.4474e+00|   -4.821335|   -4.894611|   -5.473410|   -5.451125|   -5.100919|   -7.565672|    2.280815|
|        8654|  5.4474e+00|   -4.820502|   -4.893571|   -5.472918|   -5.450906|   -5.100133|   -7.565692|    2.280412|
|        8655|  5.4474e+00|   -4.819669|   -4.892533|   -5.472427|   -5.450684|   -5.099346|   -7.565713|    2.280009|
|        8656|  5.4474e+00|   -4.818836|   -4.891496|   -5.471940|   -5.450460|   -5.098560|   -7.565733|    2.279608|
|        8657|  5.4474e+00|   -4.818004|   -4.890460|   -5.471452|   -5.450234|   -5.097773|   -7.565754|    2.279208|
|        8658|  5.4474e+00|   -4.817173|   -4.889425|   -5.470965|   -5.450006|   -5.096986|   -7.565775|    2.278808|
|        8659|  5.4473e+00|   -4.816342|   -4.888392|   -5.470478|   -5.449776|   -5.096199|   -7.565795|    2.278409|
|        8660|  5.4473e+00|   -4.815512|   -4.887360|   -5.469993|   -5.449544|   -5.095411|   -7.565816|    2.278011|
|        8661|  5.4473e+00|   -4.814683|   -4.886330|   -5.469511|   -5.449311|   -5.094625|   -7.565837|    2.277614|
|        8662|  5.4473e+00|   -4.813856|   -4.885302|   -5.469030|   -5.449077|   -5.093840|   -7.565858|    2.277218|
|        8663|  5.4473e+00|   -4.813031|   -4.884275|   -5.468552|   -5.448841|   -5.093055|   -7.565878|    2.276823|

scontrol show job 1209037
JobId=1209037 JobName=m6_aoa15
   UserId=anthonyy(3152141) GroupId=anthonyy(3152141) MCS_label=N/A
   Priority=601371 Nice=0 Account=rrg-jphickey QOS=normal
   JobState=CANCELLED Reason=None Dependency=(null)
   Requeue=0 Restarts=0 BatchFlag=1 Reboot=0 ExitCode=0:15
   RunTime=13:19:32 TimeLimit=18:00:00 TimeMin=N/A
   SubmitTime=2026-03-21T04:16:29 EligibleTime=2026-03-21T04:16:29
   AccrueTime=2026-03-21T04:16:29
   StartTime=2026-03-21T05:20:17 EndTime=2026-03-21T18:39:49 Deadline=N/A
   SuspendTime=None SecsPreSuspend=0 LastSchedEval=2026-03-21T05:20:17 Scheduler=Main
   Partition=compute AllocNode:Sid=tri-login05:4166370
   ReqNodeList=(null) ExcNodeList=(null)
   NodeList=tri[0810,0906]
   BatchHost=tri0810
   NumNodes=2 NumCPUs=384 NumTasks=128 CPUs/Task=1 ReqB:S:C:T=0:0:*:*
   ReqTRES=cpu=128,mem=1534000M,node=2,billing=128
   AllocTRES=cpu=384,mem=1534000M,node=2,billing=384
   Socks/Node=* NtasksPerN:B:S:C=64:0:*:* CoreSpec=*
   MinCPUsNode=64 MinMemoryNode=767000M MinTmpDiskNode=0
   Features=(null) DelayBoot=00:00:00
   OverSubscribe=NO Contiguous=0 Licenses=(null) Network=(null)
   Command=/scratch/anthonyy/reentry/orion/config/run.sh
   WorkDir=/scratch/anthonyy/reentry/orion/cases/m6_aoa15
   Comment=/opt/slurm/bin/sbatch --export=NONE --get-user-env=L --job-name m6_aoa15 --nodes 2 --ntasks-per-node 64 --cpus-per-task 1 --mem 0 --time 18:00:00 --account rrg-jphickey --output orion_%j.out --error orion_%j.err --chdir /scratch/anthonyy/reentry/orion/cases/m6_aoa15 /scratch/anthonyy/reentry/orion/config/run.sh /scratch/anthonyy/reentry/orion/config/generated/m6_aoa15.cfg 
   StdErr=/scratch/anthonyy/reentry/orion/cases/m6_aoa15/orion_1209037.err
   StdIn=/dev/null
   StdOut=/scratch/anthonyy/reentry/orion/cases/m6_aoa15/orion_1209037.out
   TresPerTask=cpu=1
   

sacct -j 1209037
JobID           JobName    Account    Elapsed  MaxVMSize     MaxRSS  SystemCPU    UserCPU ExitCode 
------------ ---------- ---------- ---------- ---------- ---------- ---------- ---------- -------- 
1209037        m6_aoa15 rrg-jphic+   13:19:32                         07:25:00 69-23:21:+      0:0 
1209037.bat+      batch rrg-jphic+   13:19:33          0      9960K  00:00.164  00:00.591     0:15 
1209037.ext+     extern rrg-jphic+   13:19:37          0          0  00:00.002   00:00:00      0:0 
1209037.0       SU2_CFD rrg-jphic+   13:19:32          0  10735696K   07:25:00 69-23:21:+     0:15 

