Nodes: tri[1024,1185]
Tasks: 128
NPN:   64

-------------------------------------------------------------------------
|    ___ _   _ ___                                                      |
|   / __| | | |_  )   Release 7.5.1 "Blackbird"                         |
|   \__ \ |_| |/ /                                                      |
|   |___/\___//___|   Suite (Computational Fluid Dynamics Code)         |
|                                                                       |
-------------------------------------------------------------------------
| SU2 Project Website: https://su2code.github.io                        |
|                                                                       |
| The SU2 Project is maintained by the SU2 Foundation                   |
| (http://su2foundation.org)                                            |
-------------------------------------------------------------------------
| Copyright 2012-2023, SU2 Contributors                                 |
|                                                                       |
| SU2 is free software; you can redistribute it and/or                  |
| modify it under the terms of the GNU Lesser General Public            |
| License as published by the Free Software Foundation; either          |
| version 2.1 of the License, or (at your option) any later version.    |
|                                                                       |
| SU2 is distributed in the hope that it will be useful,                |
| but WITHOUT ANY WARRANTY; without even the implied warranty of        |
| MERCHANTABILITY or FITNESS FOR A PARTICULAR PURPOSE. See the GNU      |
| Lesser General Public License for more details.                       |
|                                                                       |
| You should have received a copy of the GNU Lesser General Public      |
| License along with SU2. If not, see <http://www.gnu.org/licenses/>.   |
-------------------------------------------------------------------------

Parsing config file for zone 0

----------------- Physical Case Definition ( Zone 0 ) -------------------
Compressible RANS equations.
Turbulence model: Spalart-Allmaras-noft2
Hybrid RANS/LES: No Hybrid RANS/LES
Mach number: 6.
Angle of attack (AoA): 15 deg, and angle of sideslip (AoS): 0 deg.
Reynolds number: 6.86229e+08. Reference length 5.
Reading and writing binary SU2 native restart files.
Read flow solution from: restart_flow.dat.
Non-Dimensional simulation (V=1.0, Rho=1.0, T=1.0 at the farfield).
The reference area will be computed using y(2D) or z(3D) projection.
The semi-span will be computed using the max y(3D) value.
The reference length is 0.64607 m.
Reference origin for moment evaluation is (0.25, 0, 0).
Surface(s) where the force coefficients are evaluated: ORION_SURFACE.

Input mesh file name: fine.su2

--------------- Space Numerical Integration ( Zone 0 ) ------------------
Jameson-Schmidt-Turkel scheme (2nd order in space) for the flow inviscid terms.
JST viscous coefficients (2nd & 4th): 0.5, 0.02.
The method includes a grid stretching correction (p = 0.3).
Scalar upwind solver for the turbulence model.
First order integration in space.
Average of gradients with correction (viscous flow terms).
Average of gradients with correction (viscous turbulence terms).
Gradient for upwind reconstruction: Green-Gauss.
Gradient for viscous and source terms: Green-Gauss.

--------------- Time Numerical Integration  ( Zone 0 ) ------------------
Local time stepping (steady state simulation).
Euler implicit method for the flow equations.
FGMRES is used for solving the linear system.
Using a ILU(0) preconditioning.
Convergence criteria of the linear solver: 1e-06.
Max number of linear iterations: 100.
CFL adaptation. Factor down: 0.5, factor up: 1.1,
                lower limit: 0.05, upper limit: 0.5,
                acceptable linear residual: 0.001.
Courant-Friedrichs-Lewy number:     0.03
Euler implicit time integration for the turbulence model.

------------------ Convergence Criteria  ( Zone 0 ) ---------------------
Maximum number of solver subiterations: 999999.
Begin convergence monitoring at iteration 5.
Residual minimum value: 1e-8.
Cauchy series min. value: 1e-10.
Number of Cauchy elements: 100.
Begin windowed time average at iteration 0.

-------------------- Output Information ( Zone 0 ) ----------------------
File writing frequency: 
+------------------------------------+
|                     File| Frequency|
+------------------------------------+
|                  RESTART|       150|
|                 PARAVIEW|       150|
|         SURFACE_PARAVIEW|       150|
+------------------------------------+
Writing the convergence history file every 1 inner iterations.
Writing the screen convergence history every 1 inner iterations.
The tabular file format is CSV (.csv).
Convergence history file name: history.
Forces breakdown file name: forces_breakdown.dat.
Surface file name: surface_flow.
Volume file name: flow.
Restart file name: restart_flow.

------------- Config File Boundary Information ( Zone 0 ) ---------------
+-----------------------------------------------------------------------+
|                        Marker Type|                        Marker Name|
+-----------------------------------------------------------------------+
|                          Far-field|                           FARFIELD|
+-----------------------------------------------------------------------+
|                     Heat flux wall|                      ORION_SURFACE|
+-----------------------------------------------------------------------+

-------------------- Output Preprocessing ( Zone 0 ) --------------------

WARNING: SURFACE_PRESSURE_DROP can only be computed for at least 2 surfaces (outlet, inlet, ...)

Screen output fields: INNER_ITER, WALL_TIME, MIN_DELTA_TIME, MAX_DELTA_TIME, MIN_CFL, MAX_CFL, AVG_CFL, RMS_DENSITY, RMS_MOMENTUM-X, RMS_MOMENTUM-Y, RMS_MOMENTUM-Z, RMS_ENERGY, RMS_NU_TILDE, DRAG
History output group(s): ITER, RMS_RES
Convergence field(s): RMS_DENSITY
Warning: No (valid) fields chosen for time convergence monitoring. Time convergence monitoring inactive.
Volume output fields: MACH, PRESSURE, TEMPERATURE, DENSITY, HEAT_FLUX, Y_PLUS, COORDINATES, SOLUTION

------------------- Geometry Preprocessing ( Zone 0 ) -------------------
Three dimensional problem.
62211324 grid points before partitioning.
190879888 volume elements before partitioning.
2 surface markers.
4104 boundary elements in index 0 (Marker = FARFIELD).
1824836 boundary elements in index 1 (Marker = ORION_SURFACE).
Executing the partitioning functions.
Building the graph adjacency structure.
Calling ParMETIS... graph partitioning complete (4959327 edge cuts).
Distributing ParMETIS coloring.
Rebalancing vertices.
Rebalancing volume element connectivity.
Rebalancing markers and surface elements.
66952290 vertices including ghost points. 
197997438 interior elements including halo cells. 
103171259 tetrahedra.
94500655 prisms.
325524 pyramids.
Establishing MPI communication patterns.
Setting point connectivity.
Renumbering points (Reverse Cuthill McKee Ordering).
Recomputing point connectivity.
Setting element connectivity.
Checking the numerical grid orientation.
All volume elements are correctly orientend.
All surface elements are correctly orientend.
Identifying edges and vertices.
Setting the control volume structure.
Volume of the computational grid: 535693.
Searching for the closest normal neighbors to the surfaces.
Storing a mapping from global to local point index.
Compute the surface curvature.
Max K: 132.896. Mean K: 3.9104. Standard deviation K: 7.49569.
Checking for periodicity.
Computing mesh quality statistics for the dual control volumes.
+--------------------------------------------------------------+
|           Mesh Quality Metric|        Minimum|        Maximum|
+--------------------------------------------------------------+
|    Orthogonality Angle (deg.)|        53.0661|             90|
|     CV Face Area Aspect Ratio|        1.01143|        75298.5|
|           CV Sub-Volume Ratio|        1.00029|        45.0258|
+--------------------------------------------------------------+
Finding max control volume width.
Communicating number of neighbors.
Reference area = 11.531 m^2.
Semi-span length = 2.49999 m.
Wetted area = 57.9072 m^2.
Area projection in the x-plane = 19.6343 m^2, y-plane = 11.531 m^2, z-plane = 11.531 m^2.
Max. coordinate in the x-direction = 2.575 m, y-direction = 2.49999 m, z-direction = 2.49999 m.
Min. coordinate in the x-direction = -0.71 m, y-direction = -2.49999 m, z-direction = -2.5 m.
Computing wall distances.

-------------------- Solver Preprocessing ( Zone 0 ) --------------------
Viscous flow: Computing pressure using the ideal gas law
based on the free-stream temperature and a density computed
from the Reynolds number.
Force coefficients computed using free-stream values.

-- Models:
+------------------------------------------------------------------------------+
|          Viscosity Model|        Conductivity Model|              Fluid Model|
+------------------------------------------------------------------------------+
|               SUTHERLAND|          CONSTANT_PRANDTL|             STANDARD_AIR|
+------------------------------------------------------------------------------+
-- Fluid properties:
+------------------------------------------------------------------------------+
|                  Name|    Dim. value|    Ref. value|      Unit|Non-dim. value|
+------------------------------------------------------------------------------+
|        Ref. Viscosity|     1.716e-05|       2455.73|   N.s/m^2|   6.98773e-09|
|      Sutherland Temp.|        273.15|        288.15|         K|      0.947944|
|     Sutherland Const.|         110.4|        288.15|         K|      0.383134|
+------------------------------------------------------------------------------+
|        Prandtl (Lam.)|             -|             -|         -|          0.72|
|       Prandtl (Turb.)|             -|             -|         -|           0.9|
+------------------------------------------------------------------------------+
|          Gas Constant|       287.058|       14467.7|  N.m/kg.K|     0.0198413|
|      Spec. Heat Ratio|             -|             -|         -|           1.4|
+------------------------------------------------------------------------------+
-- Initial and free-stream conditions:
+------------------------------------------------------------------------------+
|                  Name|    Dim. value|    Ref. value|      Unit|Non-dim. value|
+------------------------------------------------------------------------------+
|       Static Pressure|       99485.6|   5.01407e+06|        Pa|     0.0198413|
|               Density|       1.20274|       1.20274|    kg/m^3|             1|
|           Temperature|        288.15|        288.15|         K|             1|
|          Total Energy|   2.29123e+06|   4.16887e+06|   m^2/s^2|      0.549603|
|            Velocity-X|       1972.21|       2041.78|       m/s|      0.965926|
|            Velocity-Y|             0|       2041.78|       m/s|             0|
|            Velocity-Z|       528.452|       2041.78|       m/s|      0.258819|
|    Velocity Magnitude|       2041.78|       2041.78|       m/s|             1|
+------------------------------------------------------------------------------+
|             Viscosity|    1.7893e-05|       2455.73|   N.s/m^2|    7.2862e-09|
|          Conductivity|             -|   3.55289e+07|   W/m^2.K|             -|
|     Turb. Kin. Energy|       15633.3|   4.16887e+06|   m^2/s^2|       0.00375|
|     Spec. Dissipation|   1.05085e+08|       2041.78|       1/s|       51467.1|
+------------------------------------------------------------------------------+
|           Mach Number|             -|             -|         -|             6|
|       Reynolds Number|             -|             -|         -|   6.86229e+08|
+------------------------------------------------------------------------------+
Initialize Jacobian structure (Navier-Stokes). MG level: 0.
Initialize Jacobian structure (SA model).

------------------- Numerics Preprocessing ( Zone 0 ) -------------------

----------------- Integration Preprocessing ( Zone 0 ) ------------------

------------------- Iteration Preprocessing ( Zone 0 ) ------------------
Euler/Navier-Stokes/RANS fluid iteration.

------------------------------ Begin Solver -----------------------------

Simulation Run using the Single-zone Driver
WARNING: SU2 was not compiled for an AVX-capable architecture. Performance could be better,
         see https://su2code.github.io/docs_v7/Build-SU2-Linux-MacOS/#compiler-optimizations
+-------------------------------------------------------------------------------------------------------------------------------------------------------------------------------------+
|  Inner_Iter|   Time(sec)|      Min DT|      Max DT|     Min CFL|     Max CFL|     Avg CFL|    rms[Rho]|   rms[RhoU]|   rms[RhoV]|   rms[RhoW]|   rms[RhoE]|     rms[nu]|          CD|
+-------------------------------------------------------------------------------------------------------------------------------------------------------------------------------------+
|           0|  1.1136e+01|  2.5526e-10|  4.6272e-02|  5.0000e-02|  5.0000e-02|  5.0000e-02|   -4.573589|   -4.637481|   -5.257729|   -5.060659|   -4.846195|   -7.564394|    2.464162|
|           1|  8.8760e+00|  4.2543e-10|  7.7120e-02|  5.5000e-02|  5.5000e-02|  5.5000e-02|   -4.573632|   -4.637519|   -5.257802|   -5.060682|   -4.846256|   -7.564435|    2.464186|
|           2|  8.0027e+00|  4.6798e-10|  8.4832e-02|  6.0500e-02|  6.0500e-02|  6.0500e-02|   -4.573700|   -4.637579|   -5.257917|   -5.060717|   -4.846353|   -7.564574|    2.464212|
|           3|  7.5305e+00|  5.1477e-10|  9.3315e-02|  6.6550e-02|  6.6550e-02|  6.6550e-02|   -4.573773|   -4.637645|   -5.258041|   -5.060753|   -4.846458|   -7.564727|    2.464240|
|           4|  7.3077e+00|  5.6625e-10|  1.0265e-01|  7.3205e-02|  7.3205e-02|  7.3205e-02|   -4.573853|   -4.637717|   -5.258174|   -5.060791|   -4.846572|   -7.564895|    2.464272|
|           5|  7.1613e+00|  6.2287e-10|  1.1291e-01|  8.0526e-02|  8.0526e-02|  8.0526e-02|   -4.573939|   -4.637796|   -5.258316|   -5.060830|   -4.846695|   -7.565080|    2.464306|
|           6|  7.0696e+00|  6.8516e-10|  1.2420e-01|  8.8578e-02|  8.8578e-02|  8.8578e-02|   -4.574032|   -4.637882|   -5.258468|   -5.060870|   -4.846828|   -7.565284|    2.464344|
|           7|  6.9621e+00|  7.5367e-10|  1.3662e-01|  9.7436e-02|  9.7436e-02|  9.7436e-02|   -4.574133|   -4.637976|   -5.258630|   -5.060912|   -4.846971|   -7.565508|    2.464386|
|           8|  6.8450e+00|  8.2904e-10|  1.5028e-01|  1.0718e-01|  1.0718e-01|  1.0718e-01|   -4.574241|   -4.638079|   -5.258801|   -5.060954|   -4.847125|   -7.565755|    2.464431|
|           9|  6.7615e+00|  9.1194e-10|  1.6531e-01|  1.1790e-01|  1.1790e-01|  1.1790e-01|   -4.574357|   -4.638190|   -5.258981|   -5.060995|   -4.847290|   -7.566027|    2.464481|
|          10|  6.7256e+00|  1.0031e-09|  1.8184e-01|  1.2969e-01|  1.2969e-01|  1.2969e-01|   -4.574482|   -4.638311|   -5.259170|   -5.061036|   -4.847466|   -7.566326|    2.464536|
|          11|  6.6976e+00|  1.1034e-09|  2.0003e-01|  1.4266e-01|  1.4266e-01|  1.4266e-01|   -4.574616|   -4.638442|   -5.259367|   -5.061074|   -4.847653|   -7.566656|    2.464597|
|          12|  6.6691e+00|  1.2138e-09|  2.2003e-01|  1.5692e-01|  1.5692e-01|  1.5692e-01|   -4.574758|   -4.638584|   -5.259572|   -5.061110|   -4.847853|   -7.567019|    2.464663|
|          13|  6.6972e+00|  1.3352e-09|  2.4203e-01|  1.7261e-01|  1.7261e-01|  1.7261e-01|   -4.574910|   -4.638738|   -5.259784|   -5.061141|   -4.848064|   -7.567419|    2.464736|
|          14|  6.7072e+00|  1.4687e-09|  2.6624e-01|  1.8987e-01|  1.8987e-01|  1.8987e-01|   -4.575070|   -4.638904|   -5.260000|   -5.061165|   -4.848287|   -7.567860|    2.464815|
|          15|  6.7068e+00|  1.6155e-09|  2.9286e-01|  2.0886e-01|  2.0886e-01|  2.0886e-01|   -4.575240|   -4.639083|   -5.260218|   -5.061181|   -4.848520|   -7.568346|    2.464903|
|          16|  6.7120e+00|  1.7771e-09|  3.2215e-01|  2.2975e-01|  2.2975e-01|  2.2975e-01|   -4.575417|   -4.639275|   -5.260437|   -5.061186|   -4.848764|   -7.568881|    2.464998|
|          17|  6.7069e+00|  1.9547e-09|  3.5436e-01|  2.5272e-01|  2.5272e-01|  2.5272e-01|   -4.575603|   -4.639479|   -5.260653|   -5.061176|   -4.849015|   -7.569471|    2.465103|
|          18|  6.7133e+00|  2.1502e-09|  3.8980e-01|  2.7800e-01|  2.7800e-01|  2.7800e-01|   -4.575795|   -4.639697|   -5.260862|   -5.061149|   -4.849272|   -7.570121|    2.465218|
|          19|  6.7060e+00|  2.3652e-09|  4.2878e-01|  3.0580e-01|  3.0580e-01|  3.0580e-01|   -4.575993|   -4.639927|   -5.261059|   -5.061098|   -4.849533|   -7.570838|    2.465343|
|          20|  6.6948e+00|  2.6017e-09|  4.7166e-01|  3.3637e-01|  3.3637e-01|  3.3637e-01|   -4.576193|   -4.640169|   -5.261238|   -5.061019|   -4.849793|   -7.571629|    2.465481|
|          21|  6.6980e+00|  2.8618e-09|  5.1882e-01|  3.7001e-01|  3.7001e-01|  3.7001e-01|   -4.576393|   -4.640420|   -5.261393|   -5.060904|   -4.850047|   -7.572500|    2.465631|
|          22|  6.6950e+00|  3.1480e-09|  5.7070e-01|  4.0701e-01|  4.0701e-01|  4.0701e-01|   -4.576591|   -4.640679|   -5.261515|   -5.060747|   -4.850289|   -7.573462|    2.465795|
|          23|  6.7242e+00|  3.4627e-09|  6.2777e-01|  4.4772e-01|  4.4772e-01|  4.4772e-01|   -4.576786|   -4.640949|   -5.261601|   -5.060550|   -4.850518|   -7.574524|    2.465974|
|          24|  6.7455e+00|  3.8090e-09|  6.9055e-01|  4.9249e-01|  4.9249e-01|  4.9249e-01|   -4.576967|   -4.641216|   -5.261637|   -5.060290|   -4.850714|   -7.575694|    2.466170|
|          25|  6.7676e+00|  4.1898e-09|  7.5961e-01|  5.0000e-01|  5.0000e-01|  5.0000e-01|   -4.577121|   -4.641474|   -5.261610|   -5.059951|   -4.850862|   -7.576987|    2.466383|
|          26|  6.7900e+00|  4.2536e-09|  7.7119e-01|  5.0000e-01|  5.0000e-01|  5.0000e-01|   -4.577239|   -4.641711|   -5.261507|   -5.059519|   -4.850945|   -7.578513|    2.466596|
|          27|  6.8139e+00|  4.2536e-09|  7.7119e-01|  5.0000e-01|  5.0000e-01|  5.0000e-01|   -4.577345|   -4.641936|   -5.261403|   -5.059070|   -4.851006|   -7.580084|    2.466808|
|          28|  6.8391e+00|  4.2535e-09|  7.7119e-01|  5.0000e-01|  5.0000e-01|  5.0000e-01|   -4.577446|   -4.642151|   -5.261316|   -5.058623|   -4.851059|   -7.581656|    2.467018|
|          29|  6.8582e+00|  4.2534e-09|  7.7119e-01|  5.0000e-01|  5.0000e-01|  5.0000e-01|   -4.577542|   -4.642356|   -5.261245|   -5.058177|   -4.851102|   -7.583228|    2.467225|
|          30|  6.8700e+00|  4.2533e-09|  7.7119e-01|  5.0000e-01|  5.0000e-01|  5.0000e-01|   -4.577633|   -4.642553|   -5.261189|   -5.057732|   -4.851137|   -7.584800|    2.467430|
|          31|  6.8796e+00|  4.2533e-09|  7.7119e-01|  5.0000e-01|  5.0000e-01|  5.0000e-01|   -4.577719|   -4.642741|   -5.261147|   -5.057288|   -4.851163|   -7.586372|    2.467633|
|          32|  6.8968e+00|  4.2532e-09|  7.7119e-01|  5.0000e-01|  5.0000e-01|  5.0000e-01|   -4.577801|   -4.642921|   -5.261119|   -5.056847|   -4.851183|   -7.587943|    2.467834|
|          33|  6.9087e+00|  4.2531e-09|  7.7119e-01|  5.0000e-01|  5.0000e-01|  5.0000e-01|   -4.577879|   -4.643095|   -5.261104|   -5.056406|   -4.851196|   -7.589512|    2.468032|
|          34|  6.9234e+00|  4.2530e-09|  7.7119e-01|  5.0000e-01|  5.0000e-01|  5.0000e-01|   -4.577953|   -4.643263|   -5.261102|   -5.055968|   -4.851204|   -7.591078|    2.468228|
|          35|  6.9317e+00|  4.2530e-09|  7.7119e-01|  5.0000e-01|  5.0000e-01|  5.0000e-01|   -4.578025|   -4.643427|   -5.261111|   -5.055532|   -4.851209|   -7.592643|    2.468422|
|          36|  6.9376e+00|  4.2529e-09|  7.7119e-01|  5.0000e-01|  5.0000e-01|  5.0000e-01|   -4.578095|   -4.643588|   -5.261133|   -5.055100|   -4.851210|   -7.594203|    2.468614|
|          37|  6.9466e+00|  4.2528e-09|  7.7119e-01|  5.0000e-01|  5.0000e-01|  5.0000e-01|   -4.578162|   -4.643744|   -5.261165|   -5.054669|   -4.851209|   -7.595760|    2.468803|
|          38|  6.9575e+00|  4.2527e-09|  7.7119e-01|  5.0000e-01|  5.0000e-01|  5.0000e-01|   -4.578228|   -4.643897|   -5.261206|   -5.054241|   -4.851204|   -7.597313|    2.468990|
|          39|  6.9645e+00|  4.2526e-09|  7.7119e-01|  5.0000e-01|  5.0000e-01|  5.0000e-01|   -4.578292|   -4.644048|   -5.261256|   -5.053815|   -4.851199|   -7.598861|    2.469175|
|          40|  6.9723e+00|  4.2525e-09|  7.7119e-01|  5.0000e-01|  5.0000e-01|  5.0000e-01|   -4.578356|   -4.644196|   -5.261315|   -5.053392|   -4.851192|   -7.600404|    2.469358|
|          41|  6.9834e+00|  4.2525e-09|  7.7119e-01|  5.0000e-01|  5.0000e-01|  5.0000e-01|   -4.578419|   -4.644344|   -5.261382|   -5.052973|   -4.851186|   -7.601940|    2.469538|
|          42|  6.9894e+00|  4.2524e-09|  7.7119e-01|  5.0000e-01|  5.0000e-01|  5.0000e-01|   -4.578483|   -4.644491|   -5.261457|   -5.052558|   -4.851181|   -7.603469|    2.469716|
|          43|  6.9948e+00|  4.2523e-09|  7.7119e-01|  5.0000e-01|  5.0000e-01|  5.0000e-01|   -4.578548|   -4.644638|   -5.261538|   -5.052146|   -4.851178|   -7.604991|    2.469892|
|          44|  7.0155e+00|  4.2522e-09|  7.7119e-01|  5.0000e-01|  5.0000e-01|  5.0000e-01|   -4.578613|   -4.644787|   -5.261625|   -5.051738|   -4.851176|   -7.606505|    2.470066|
|          45|  7.0261e+00|  4.2521e-09|  7.7119e-01|  5.0000e-01|  5.0000e-01|  5.0000e-01|   -4.578680|   -4.644937|   -5.261718|   -5.051335|   -4.851178|   -7.608010|    2.470237|
|          46|  7.0338e+00|  4.2520e-09|  7.7119e-01|  5.0000e-01|  5.0000e-01|  5.0000e-01|   -4.578754|   -4.645094|   -5.261819|   -5.050938|   -4.851188|   -7.609505|    2.470406|
|          47|  7.0392e+00|  4.2520e-09|  7.7119e-01|  5.0000e-01|  5.0000e-01|  5.0000e-01|   -4.578836|   -4.645260|   -5.261929|   -5.050547|   -4.851208|   -7.610991|    2.470573|
|          48|  7.0432e+00|  4.2519e-09|  7.7119e-01|  5.0000e-01|  5.0000e-01|  5.0000e-01|   -4.578919|   -4.645427|   -5.262041|   -5.050160|   -4.851230|   -7.612467|    2.470737|
|          49|  7.0501e+00|  4.2518e-09|  7.7119e-01|  5.0000e-01|  5.0000e-01|  5.0000e-01|   -4.579004|   -4.645597|   -5.262154|   -5.049779|   -4.851256|   -7.613931|    2.470900|
|          50|  7.0538e+00|  4.2517e-09|  7.7119e-01|  5.0000e-01|  5.0000e-01|  5.0000e-01|   -4.579091|   -4.645769|   -5.262271|   -5.049401|   -4.851286|   -7.615384|    2.471060|
|          51|  7.0614e+00|  4.2516e-09|  7.7119e-01|  5.0000e-01|  5.0000e-01|  5.0000e-01|   -4.579182|   -4.645945|   -5.262391|   -5.049030|   -4.851323|   -7.616824|    2.471217|
|          52|  7.0677e+00|  4.2515e-09|  7.7119e-01|  5.0000e-01|  5.0000e-01|  5.0000e-01|   -4.579276|   -4.646126|   -5.262514|   -5.048665|   -4.851364|   -7.618252|    2.471373|
|          53|  7.0714e+00|  4.2514e-09|  7.7119e-01|  5.0000e-01|  5.0000e-01|  5.0000e-01|   -4.579373|   -4.646310|   -5.262638|   -5.048303|   -4.851410|   -7.619667|    2.471526|
|          54|  7.0771e+00|  4.2513e-09|  7.7119e-01|  5.0000e-01|  5.0000e-01|  5.0000e-01|   -4.579472|   -4.646497|   -5.262764|   -5.047944|   -4.851460|   -7.621067|    2.471677|
|          55|  7.0834e+00|  4.2512e-09|  7.7119e-01|  5.0000e-01|  5.0000e-01|  5.0000e-01|   -4.579574|   -4.646687|   -5.262892|   -5.047589|   -4.851515|   -7.622453|    2.471826|
|          56|  7.0860e+00|  4.2512e-09|  7.7119e-01|  5.0000e-01|  5.0000e-01|  5.0000e-01|   -4.579681|   -4.646883|   -5.263023|   -5.047244|   -4.851578|   -7.623824|    2.471972|
|          57|  7.0871e+00|  4.2511e-09|  7.7119e-01|  5.0000e-01|  5.0000e-01|  5.0000e-01|   -4.579791|   -4.647083|   -5.263155|   -5.046904|   -4.851647|   -7.625179|    2.472117|
|          58|  7.0926e+00|  4.2510e-09|  7.7119e-01|  5.0000e-01|  5.0000e-01|  5.0000e-01|   -4.579906|   -4.647287|   -5.263291|   -5.046570|   -4.851721|   -7.626518|    2.472259|
|          59|  7.0946e+00|  4.2509e-09|  7.7119e-01|  5.0000e-01|  5.0000e-01|  5.0000e-01|   -4.580024|   -4.647495|   -5.263428|   -5.046240|   -4.851801|   -7.627840|    2.472398|
|          60|  7.0998e+00|  4.2508e-09|  7.7119e-01|  5.0000e-01|  5.0000e-01|  5.0000e-01|   -4.580145|   -4.647706|   -5.263567|   -5.045914|   -4.851885|   -7.629145|    2.472536|
|          61|  7.1052e+00|  4.2507e-09|  7.7119e-01|  5.0000e-01|  5.0000e-01|  5.0000e-01|   -4.580269|   -4.647920|   -5.263707|   -5.045593|   -4.851974|   -7.630432|    2.472671|
|          62|  7.1076e+00|  4.2506e-09|  7.7119e-01|  5.0000e-01|  5.0000e-01|  5.0000e-01|   -4.580397|   -4.648138|   -5.263850|   -5.045276|   -4.852069|   -7.631700|    2.472803|
|          63|  7.1112e+00|  4.2505e-09|  7.7119e-01|  5.0000e-01|  5.0000e-01|  5.0000e-01|   -4.580527|   -4.648359|   -5.263993|   -5.044963|   -4.852167|   -7.632950|    2.472934|
|          64|  7.1128e+00|  4.2504e-09|  7.7119e-01|  5.0000e-01|  5.0000e-01|  5.0000e-01|   -4.580661|   -4.648583|   -5.264138|   -5.044654|   -4.852271|   -7.634179|    2.473062|
|          65|  7.1145e+00|  4.2503e-09|  7.7119e-01|  5.0000e-01|  5.0000e-01|  5.0000e-01|   -4.580797|   -4.648810|   -5.264284|   -5.044348|   -4.852377|   -7.635389|    2.473188|
|          66|  7.1161e+00|  4.2502e-09|  7.7119e-01|  5.0000e-01|  5.0000e-01|  5.0000e-01|   -4.580935|   -4.649040|   -5.264431|   -5.044046|   -4.852488|   -7.636578|    2.473311|
|          67|  7.1179e+00|  4.2501e-09|  7.7119e-01|  5.0000e-01|  5.0000e-01|  5.0000e-01|   -4.581076|   -4.649272|   -5.264578|   -5.043747|   -4.852603|   -7.637745|    2.473433|
|          68|  7.1188e+00|  4.2500e-09|  7.7119e-01|  5.0000e-01|  5.0000e-01|  5.0000e-01|   -4.581220|   -4.649507|   -5.264727|   -5.043452|   -4.852721|   -7.638891|    2.473551|
|          69|  7.1199e+00|  4.2499e-09|  7.7119e-01|  5.0000e-01|  5.0000e-01|  5.0000e-01|   -4.581366|   -4.649744|   -5.264876|   -5.043161|   -4.852843|   -7.640014|    2.473668|
|          70|  7.1212e+00|  4.2498e-09|  7.7119e-01|  5.0000e-01|  5.0000e-01|  5.0000e-01|   -4.581515|   -4.649983|   -5.265027|   -5.042873|   -4.852968|   -7.641115|    2.473782|
|          71|  7.1236e+00|  4.2497e-09|  7.7119e-01|  5.0000e-01|  5.0000e-01|  5.0000e-01|   -4.581668|   -4.650227|   -5.265180|   -5.042590|   -4.853098|   -7.642193|    2.473894|
|          72|  7.1243e+00|  4.2496e-09|  7.7119e-01|  5.0000e-01|  5.0000e-01|  5.0000e-01|   -4.581825|   -4.650474|   -5.265333|   -5.042313|   -4.853233|   -7.643247|    2.474003|
|          73|  7.1250e+00|  4.2495e-09|  7.7119e-01|  5.0000e-01|  5.0000e-01|  5.0000e-01|   -4.581983|   -4.650722|   -5.265485|   -5.042039|   -4.853370|   -7.644278|    2.474110|
|          74|  7.1280e+00|  4.2494e-09|  7.7119e-01|  5.0000e-01|  5.0000e-01|  5.0000e-01|   -4.582143|   -4.650973|   -5.265637|   -5.041768|   -4.853510|   -7.645284|    2.474215|
|          75|  7.1287e+00|  4.2493e-09|  7.7119e-01|  5.0000e-01|  5.0000e-01|  5.0000e-01|   -4.582306|   -4.651226|   -5.265791|   -5.041500|   -4.853654|   -7.646265|    2.474317|
|          76|  7.1290e+00|  4.2492e-09|  7.7119e-01|  5.0000e-01|  5.0000e-01|  5.0000e-01|   -4.582472|   -4.651481|   -5.265945|   -5.041236|   -4.853800|   -7.647222|    2.474416|
|          77|  7.1325e+00|  4.2491e-09|  7.7119e-01|  5.0000e-01|  5.0000e-01|  5.0000e-01|   -4.582640|   -4.651737|   -5.266099|   -5.040975|   -4.853948|   -7.648153|    2.474514|
|          78|  7.1337e+00|  4.2490e-09|  7.7119e-01|  5.0000e-01|  5.0000e-01|  5.0000e-01|   -4.582809|   -4.651995|   -5.266254|   -5.040718|   -4.854099|   -7.649058|    2.474608|
|          79|  7.1363e+00|  4.2489e-09|  7.7119e-01|  5.0000e-01|  5.0000e-01|  5.0000e-01|   -4.582981|   -4.652255|   -5.266408|   -5.040465|   -4.854253|   -7.649937|    2.474701|
|          80|  7.1372e+00|  4.2488e-09|  7.7119e-01|  5.0000e-01|  5.0000e-01|  5.0000e-01|   -4.583155|   -4.652516|   -5.266564|   -5.040214|   -4.854409|   -7.650789|    2.474791|
|          81|  7.1390e+00|  4.2487e-09|  7.7119e-01|  5.0000e-01|  5.0000e-01|  5.0000e-01|   -4.583331|   -4.652780|   -5.266722|   -5.039967|   -4.854566|   -7.651613|    2.474878|
|          82|  7.1422e+00|  4.2485e-09|  7.7119e-01|  5.0000e-01|  5.0000e-01|  5.0000e-01|   -4.583509|   -4.653044|   -5.266881|   -5.039722|   -4.854726|   -7.652411|    2.474963|
|          83|  7.1426e+00|  4.2484e-09|  7.7119e-01|  5.0000e-01|  5.0000e-01|  5.0000e-01|   -4.583687|   -4.653310|   -5.267042|   -5.039479|   -4.854887|   -7.653180|    2.475046|
|          84|  7.1440e+00|  4.2483e-09|  7.7119e-01|  5.0000e-01|  5.0000e-01|  5.0000e-01|   -4.583869|   -4.653577|   -5.267205|   -5.039240|   -4.855051|   -7.653922|    2.475126|
|          85|  7.1468e+00|  4.2482e-09|  7.7119e-01|  5.0000e-01|  5.0000e-01|  5.0000e-01|   -4.584051|   -4.653846|   -5.267368|   -5.039004|   -4.855216|   -7.654635|    2.475203|
|          86|  7.1489e+00|  4.2481e-09|  7.7119e-01|  5.0000e-01|  5.0000e-01|  5.0000e-01|   -4.584234|   -4.654115|   -5.267531|   -5.038770|   -4.855382|   -7.655320|    2.475278|
|          87|  7.1515e+00|  4.2480e-09|  7.7119e-01|  5.0000e-01|  5.0000e-01|  5.0000e-01|   -4.584419|   -4.654386|   -5.267697|   -5.038539|   -4.855550|   -7.655976|    2.475350|
|          88|  7.1548e+00|  4.2479e-09|  7.7119e-01|  5.0000e-01|  5.0000e-01|  5.0000e-01|   -4.584606|   -4.654658|   -5.267864|   -5.038310|   -4.855720|   -7.656604|    2.475420|
|          89|  7.1562e+00|  4.2478e-09|  7.7119e-01|  5.0000e-01|  5.0000e-01|  5.0000e-01|   -4.584794|   -4.654931|   -5.268035|   -5.038086|   -4.855893|   -7.657202|    2.475487|
|          90|  7.1570e+00|  4.2476e-09|  7.7119e-01|  5.0000e-01|  5.0000e-01|  5.0000e-01|   -4.584985|   -4.655207|   -5.268207|   -5.037866|   -4.856067|   -7.657772|    2.475552|
|          91|  7.1580e+00|  4.2475e-09|  7.7119e-01|  5.0000e-01|  5.0000e-01|  5.0000e-01|   -4.585177|   -4.655484|   -5.268381|   -5.037649|   -4.856244|   -7.658311|    2.475614|
|          92|  7.1588e+00|  4.2474e-09|  7.7119e-01|  5.0000e-01|  5.0000e-01|  5.0000e-01|   -4.585372|   -4.655763|   -5.268557|   -5.037437|   -4.856423|   -7.658822|    2.475674|
|          93|  7.1615e+00|  4.2473e-09|  7.7119e-01|  5.0000e-01|  5.0000e-01|  5.0000e-01|   -4.585569|   -4.656044|   -5.268736|   -5.037228|   -4.856604|   -7.659303|    2.475731|
|          94|  7.1632e+00|  4.2472e-09|  7.7119e-01|  5.0000e-01|  5.0000e-01|  5.0000e-01|   -4.585765|   -4.656325|   -5.268916|   -5.037021|   -4.856786|   -7.659754|    2.475785|
|          95|  7.1653e+00|  4.2471e-09|  7.7119e-01|  5.0000e-01|  5.0000e-01|  5.0000e-01|   -4.585963|   -4.656606|   -5.269096|   -5.036817|   -4.856968|   -7.660176|    2.475837|
|          96|  7.1682e+00|  4.2469e-09|  7.7119e-01|  5.0000e-01|  5.0000e-01|  5.0000e-01|   -4.586162|   -4.656889|   -5.269279|   -5.036615|   -4.857152|   -7.660568|    2.475887|
|          97|  7.1717e+00|  4.2468e-09|  7.7119e-01|  5.0000e-01|  5.0000e-01|  5.0000e-01|   -4.586363|   -4.657175|   -5.269463|   -5.036418|   -4.857339|   -7.660930|    2.475933|
|          98|  7.1734e+00|  4.2467e-09|  7.7119e-01|  5.0000e-01|  5.0000e-01|  5.0000e-01|   -4.586565|   -4.657461|   -5.269647|   -5.036224|   -4.857526|   -7.661263|    2.475977|
|          99|  7.1737e+00|  4.2466e-09|  7.7119e-01|  5.0000e-01|  5.0000e-01|  5.0000e-01|   -4.586768|   -4.657748|   -5.269834|   -5.036033|   -4.857716|   -7.661567|    2.476018|
|         100|  7.1746e+00|  4.2464e-09|  7.7119e-01|  5.0000e-01|  5.0000e-01|  5.0000e-01|   -4.586973|   -4.658036|   -5.270023|   -5.035845|   -4.857906|   -7.661843|    2.476057|
|         101|  7.1750e+00|  4.2463e-09|  7.7119e-01|  5.0000e-01|  5.0000e-01|  5.0000e-01|   -4.587177|   -4.658324|   -5.270213|   -5.035658|   -4.858096|   -7.662090|    2.476093|
|         102|  7.1785e+00|  4.2462e-09|  7.7119e-01|  5.0000e-01|  5.0000e-01|  5.0000e-01|   -4.587381|   -4.658612|   -5.270402|   -5.035472|   -4.858287|   -7.662308|    2.476127|
|         103|  7.1799e+00|  4.2461e-09|  7.7119e-01|  5.0000e-01|  5.0000e-01|  5.0000e-01|   -4.587585|   -4.658901|   -5.270593|   -5.035289|   -4.858477|   -7.662497|    2.476157|
|         104|  7.1827e+00|  4.2459e-09|  7.7119e-01|  5.0000e-01|  5.0000e-01|  5.0000e-01|   -4.587790|   -4.659189|   -5.270784|   -5.035109|   -4.858669|   -7.662658|    2.476185|
|         105|  7.1845e+00|  4.2458e-09|  7.7119e-01|  5.0000e-01|  5.0000e-01|  5.0000e-01|   -4.587995|   -4.659478|   -5.270976|   -5.034930|   -4.858860|   -7.662791|    2.476211|
|         106|  7.1870e+00|  4.2457e-09|  7.7119e-01|  5.0000e-01|  5.0000e-01|  5.0000e-01|   -4.588200|   -4.659766|   -5.271166|   -5.034754|   -4.859052|   -7.662895|    2.476234|
|         107|  7.1872e+00|  4.2456e-09|  7.7119e-01|  5.0000e-01|  5.0000e-01|  5.0000e-01|   -4.588406|   -4.660055|   -5.271358|   -5.034579|   -4.859244|   -7.662971|    2.476254|
|         108|  7.1869e+00|  4.2454e-09|  7.7119e-01|  5.0000e-01|  5.0000e-01|  5.0000e-01|   -4.588614|   -4.660344|   -5.271552|   -5.034409|   -4.859438|   -7.663019|    2.476271|
|         109|  7.1876e+00|  4.2453e-09|  7.7119e-01|  5.0000e-01|  5.0000e-01|  5.0000e-01|   -4.588823|   -4.660635|   -5.271745|   -5.034242|   -4.859632|   -7.663039|    2.476286|
|         110|  7.1876e+00|  4.2452e-09|  7.7119e-01|  5.0000e-01|  5.0000e-01|  5.0000e-01|   -4.589033|   -4.660926|   -5.271939|   -5.034080|   -4.859829|   -7.663033|    2.476298|
|         111|  7.1894e+00|  4.2450e-09|  7.7119e-01|  5.0000e-01|  5.0000e-01|  5.0000e-01|   -4.589244|   -4.661218|   -5.272133|   -5.033920|   -4.860026|   -7.662999|    2.476307|
|         112|  7.1904e+00|  4.2449e-09|  7.7119e-01|  5.0000e-01|  5.0000e-01|  5.0000e-01|   -4.589459|   -4.661514|   -5.272328|   -5.033767|   -4.860227|   -7.662938|    2.476314|
|         113|  7.1924e+00|  4.2448e-09|  7.7119e-01|  5.0000e-01|  5.0000e-01|  5.0000e-01|   -4.589675|   -4.661810|   -5.272525|   -5.033616|   -4.860429|   -7.662851|    2.476318|
|         114|  7.1924e+00|  4.2446e-09|  7.7119e-01|  5.0000e-01|  5.0000e-01|  5.0000e-01|   -4.589891|   -4.662106|   -5.272722|   -5.033467|   -4.860631|   -7.662738|    2.476319|
|         115|  7.1928e+00|  4.2445e-09|  7.7119e-01|  5.0000e-01|  5.0000e-01|  5.0000e-01|   -4.590109|   -4.662403|   -5.272918|   -5.033321|   -4.860834|   -7.662599|    2.476317|
|         116|  7.1924e+00|  4.2443e-09|  7.7119e-01|  5.0000e-01|  5.0000e-01|  5.0000e-01|   -4.590327|   -4.662700|   -5.273115|   -5.033178|   -4.861037|   -7.662434|    2.476313|
|         117|  7.1923e+00|  4.2442e-09|  7.7119e-01|  5.0000e-01|  5.0000e-01|  5.0000e-01|   -4.590545|   -4.662998|   -5.273313|   -5.033037|   -4.861241|   -7.662244|    2.476306|
|         118|  7.1949e+00|  4.2441e-09|  7.7119e-01|  5.0000e-01|  5.0000e-01|  5.0000e-01|   -4.590764|   -4.663296|   -5.273510|   -5.032898|   -4.861445|   -7.662028|    2.476297|
|         119|  7.1958e+00|  4.2439e-09|  7.7118e-01|  5.0000e-01|  5.0000e-01|  5.0000e-01|   -4.590983|   -4.663594|   -5.273706|   -5.032762|   -4.861649|   -7.661789|    2.476285|
|         120|  7.1961e+00|  4.2438e-09|  7.7118e-01|  5.0000e-01|  5.0000e-01|  5.0000e-01|   -4.591202|   -4.663892|   -5.273903|   -5.032629|   -4.861854|   -7.661526|    2.476270|
|         121|  7.1967e+00|  4.2436e-09|  7.7118e-01|  5.0000e-01|  5.0000e-01|  5.0000e-01|   -4.591423|   -4.664191|   -5.274100|   -5.032499|   -4.862059|   -7.661239|    2.476252|
|         122|  7.1965e+00|  4.2435e-09|  7.7118e-01|  5.0000e-01|  5.0000e-01|  5.0000e-01|   -4.591645|   -4.664491|   -5.274298|   -5.032372|   -4.862266|   -7.660929|    2.476232|
|         123|  7.1980e+00|  4.2433e-09|  7.7118e-01|  5.0000e-01|  5.0000e-01|  5.0000e-01|   -4.591868|   -4.664792|   -5.274497|   -5.032248|   -4.862474|   -7.660597|    2.476209|
|         124|  7.1988e+00|  4.2432e-09|  7.7118e-01|  5.0000e-01|  5.0000e-01|  5.0000e-01|   -4.592092|   -4.665093|   -5.274697|   -5.032127|   -4.862683|   -7.660241|    2.476183|
|         125|  7.2005e+00|  4.2431e-09|  7.7118e-01|  5.0000e-01|  5.0000e-01|  5.0000e-01|   -4.592316|   -4.665395|   -5.274897|   -5.032008|   -4.862892|   -7.659864|    2.476155|
|         126|  7.2014e+00|  4.2429e-09|  7.7118e-01|  5.0000e-01|  5.0000e-01|  5.0000e-01|   -4.592542|   -4.665698|   -5.275098|   -5.031893|   -4.863103|   -7.659466|    2.476124|
|         127|  7.2036e+00|  4.2428e-09|  7.7118e-01|  5.0000e-01|  5.0000e-01|  5.0000e-01|   -4.592769|   -4.666002|   -5.275300|   -5.031780|   -4.863315|   -7.659046|    2.476090|
|         128|  7.2061e+00|  4.2426e-09|  7.7118e-01|  5.0000e-01|  5.0000e-01|  5.0000e-01|   -4.592998|   -4.666307|   -5.275502|   -5.031670|   -4.863528|   -7.658606|    2.476053|
|         129|  7.2067e+00|  4.2425e-09|  7.7118e-01|  5.0000e-01|  5.0000e-01|  5.0000e-01|   -4.593228|   -4.666614|   -5.275706|   -5.031565|   -4.863743|   -7.658144|    2.476014|
|         130|  7.2094e+00|  4.2423e-09|  7.7118e-01|  5.0000e-01|  5.0000e-01|  5.0000e-01|   -4.593460|   -4.666922|   -5.275910|   -5.031463|   -4.863960|   -7.657664|    2.475972|
|         131|  7.2115e+00|  4.2421e-09|  7.7118e-01|  5.0000e-01|  5.0000e-01|  5.0000e-01|   -4.593694|   -4.667231|   -5.276115|   -5.031365|   -4.864178|   -7.657164|    2.475928|
|         132|  7.2133e+00|  4.2420e-09|  7.7118e-01|  5.0000e-01|  5.0000e-01|  5.0000e-01|   -4.593930|   -4.667541|   -5.276320|   -5.031271|   -4.864398|   -7.656644|    2.475881|
|         133|  7.2159e+00|  4.2418e-09|  7.7118e-01|  5.0000e-01|  5.0000e-01|  5.0000e-01|   -4.594169|   -4.667856|   -5.276525|   -5.031183|   -4.864622|   -7.656106|    2.475831|
|         134|  7.2163e+00|  4.2417e-09|  7.7118e-01|  5.0000e-01|  5.0000e-01|  5.0000e-01|   -4.594411|   -4.668174|   -5.276730|   -5.031099|   -4.864849|   -7.655550|    2.475778|
|         135|  7.2164e+00|  4.2415e-09|  7.7118e-01|  5.0000e-01|  5.0000e-01|  5.0000e-01|   -4.594654|   -4.668493|   -5.276936|   -5.031016|   -4.865076|   -7.654977|    2.475723|
|         136|  7.2175e+00|  4.2414e-09|  7.7118e-01|  5.0000e-01|  5.0000e-01|  5.0000e-01|   -4.594897|   -4.668814|   -5.277143|   -5.030936|   -4.865305|   -7.654387|    2.475666|
|         137|  7.2175e+00|  4.2412e-09|  7.7118e-01|  5.0000e-01|  5.0000e-01|  5.0000e-01|   -4.595143|   -4.669135|   -5.277350|   -5.030858|   -4.865535|   -7.653782|    2.475605|
|         138|  7.2176e+00|  4.2410e-09|  7.7118e-01|  5.0000e-01|  5.0000e-01|  5.0000e-01|   -4.595389|   -4.669457|   -5.277558|   -5.030783|   -4.865766|   -7.653162|    2.475542|
|         139|  7.2184e+00|  4.2409e-09|  7.7118e-01|  5.0000e-01|  5.0000e-01|  5.0000e-01|   -4.595635|   -4.669779|   -5.277766|   -5.030711|   -4.865997|   -7.652525|    2.475476|
|         140|  7.2189e+00|  4.2407e-09|  7.7118e-01|  5.0000e-01|  5.0000e-01|  5.0000e-01|   -4.595882|   -4.670103|   -5.277974|   -5.030642|   -4.866229|   -7.651874|    2.475408|
|         141|  7.2195e+00|  4.2405e-09|  7.7118e-01|  5.0000e-01|  5.0000e-01|  5.0000e-01|   -4.596131|   -4.670427|   -5.278182|   -5.030575|   -4.866462|   -7.651208|    2.475337|
|         142|  7.2219e+00|  4.2404e-09|  7.7118e-01|  5.0000e-01|  5.0000e-01|  5.0000e-01|   -4.596381|   -4.670753|   -5.278393|   -5.030514|   -4.866697|   -7.650528|    2.475264|
|         143|  7.2248e+00|  4.2402e-09|  7.7118e-01|  5.0000e-01|  5.0000e-01|  5.0000e-01|   -4.596634|   -4.671080|   -5.278604|   -5.030456|   -4.866933|   -7.649835|    2.475188|
|         144|  7.2254e+00|  4.2400e-09|  7.7118e-01|  5.0000e-01|  5.0000e-01|  5.0000e-01|   -4.596888|   -4.671410|   -5.278816|   -5.030400|   -4.867172|   -7.649128|    2.475109|
|         145|  7.2255e+00|  4.2399e-09|  7.7118e-01|  5.0000e-01|  5.0000e-01|  5.0000e-01|   -4.597145|   -4.671741|   -5.279029|   -5.030349|   -4.867413|   -7.648410|    2.475028|
|         146|  7.2257e+00|  4.2397e-09|  7.7118e-01|  5.0000e-01|  5.0000e-01|  5.0000e-01|   -4.597402|   -4.672073|   -5.279242|   -5.030300|   -4.867655|   -7.647679|    2.474944|
|         147|  7.2259e+00|  4.2395e-09|  7.7118e-01|  5.0000e-01|  5.0000e-01|  5.0000e-01|   -4.597662|   -4.672407|   -5.279456|   -5.030256|   -4.867899|   -7.646937|    2.474858|
|         148|  7.2277e+00|  4.2394e-09|  7.7118e-01|  5.0000e-01|  5.0000e-01|  5.0000e-01|   -4.597931|   -4.672750|   -5.279676|   -5.030222|   -4.868152|   -7.646184|    2.474769|
|         149|  7.2277e+00|  4.2392e-09|  7.7118e-01|  5.0000e-01|  5.0000e-01|  5.0000e-01|   -4.598199|   -4.673093|   -5.279896|   -5.030191|   -4.868406|   -7.645420|    2.474678|
|         150|  7.2282e+00|  4.2390e-09|  7.7118e-01|  5.0000e-01|  5.0000e-01|  5.0000e-01|   -4.598469|   -4.673437|   -5.280115|   -5.030162|   -4.868659|   -7.644646|    2.474584|
+-----------------------------------------------------------------------+
|        File Writing Summary       |              Filename             |
+-----------------------------------------------------------------------+
|SU2 binary restart                 |restart_flow.dat                   |
|Paraview                           |flow.vtu                           |
|Paraview surface                   |surface_flow.vtu                   |
+-----------------------------------------------------------------------+
+-------------------------------------------------------------------------------------------------------------------------------------------------------------------------------------+
|  Inner_Iter|   Time(sec)|      Min DT|      Max DT|     Min CFL|     Max CFL|     Avg CFL|    rms[Rho]|   rms[RhoU]|   rms[RhoV]|   rms[RhoW]|   rms[RhoE]|     rms[nu]|          CD|
+-------------------------------------------------------------------------------------------------------------------------------------------------------------------------------------+
|         151|  7.3803e+00|  4.2388e-09|  7.7118e-01|  5.0000e-01|  5.0000e-01|  5.0000e-01|   -4.598739|   -4.673780|   -5.280333|   -5.030136|   -4.868913|   -7.643863|    2.474487|
|         152|  7.3860e+00|  4.2386e-09|  7.7118e-01|  5.0000e-01|  5.0000e-01|  5.0000e-01|   -4.599010|   -4.674125|   -5.280552|   -5.030113|   -4.869168|   -7.643070|    2.474388|
|         153|  7.3868e+00|  4.2385e-09|  7.7118e-01|  5.0000e-01|  5.0000e-01|  5.0000e-01|   -4.599282|   -4.674470|   -5.280772|   -5.030092|   -4.869424|   -7.642269|    2.474287|
|         154|  7.3875e+00|  4.2383e-09|  7.7118e-01|  5.0000e-01|  5.0000e-01|  5.0000e-01|   -4.599555|   -4.674816|   -5.280992|   -5.030074|   -4.869680|   -7.641459|    2.474183|
|         155|  7.3887e+00|  4.2381e-09|  7.7118e-01|  5.0000e-01|  5.0000e-01|  5.0000e-01|   -4.599831|   -4.675164|   -5.281213|   -5.030062|   -4.869939|   -7.640641|    2.474076|
|         156|  7.3892e+00|  4.2379e-09|  7.7118e-01|  5.0000e-01|  5.0000e-01|  5.0000e-01|   -4.600111|   -4.675515|   -5.281436|   -5.030055|   -4.870201|   -7.639816|    2.473967|
|         157|  7.3886e+00|  4.2377e-09|  7.7118e-01|  5.0000e-01|  5.0000e-01|  5.0000e-01|   -4.600391|   -4.675867|   -5.281661|   -5.030051|   -4.870464|   -7.638983|    2.473856|
|         158|  7.3884e+00|  4.2376e-09|  7.7118e-01|  5.0000e-01|  5.0000e-01|  5.0000e-01|   -4.600674|   -4.676220|   -5.281886|   -5.030050|   -4.870729|   -7.638144|    2.473742|
|         159|  7.3870e+00|  4.2374e-09|  7.7118e-01|  5.0000e-01|  5.0000e-01|  5.0000e-01|   -4.600957|   -4.676573|   -5.282113|   -5.030052|   -4.870994|   -7.637298|    2.473626|
|         160|  7.3855e+00|  4.2372e-09|  7.7118e-01|  5.0000e-01|  5.0000e-01|  5.0000e-01|   -4.601240|   -4.676927|   -5.282339|   -5.030056|   -4.871259|   -7.636447|    2.473507|
|         161|  7.3839e+00|  4.2370e-09|  7.7118e-01|  5.0000e-01|  5.0000e-01|  5.0000e-01|   -4.601526|   -4.677282|   -5.282566|   -5.030062|   -4.871525|   -7.635590|    2.473386|
|         162|  7.3827e+00|  4.2368e-09|  7.7118e-01|  5.0000e-01|  5.0000e-01|  5.0000e-01|   -4.601812|   -4.677637|   -5.282791|   -5.030072|   -4.871793|   -7.634728|    2.473262|
|         163|  7.3818e+00|  4.2366e-09|  7.7118e-01|  5.0000e-01|  5.0000e-01|  5.0000e-01|   -4.602101|   -4.677995|   -5.283019|   -5.030085|   -4.872062|   -7.633862|    2.473137|
|         164|  7.3816e+00|  4.2364e-09|  7.7118e-01|  5.0000e-01|  5.0000e-01|  5.0000e-01|   -4.602391|   -4.678355|   -5.283247|   -5.030103|   -4.872334|   -7.632991|    2.473008|
|         165|  7.3799e+00|  4.2362e-09|  7.7118e-01|  5.0000e-01|  5.0000e-01|  5.0000e-01|   -4.602684|   -4.678716|   -5.283477|   -5.030124|   -4.872607|   -7.632116|    2.472877|
|         166|  7.3789e+00|  4.2360e-09|  7.7118e-01|  5.0000e-01|  5.0000e-01|  5.0000e-01|   -4.602979|   -4.679078|   -5.283708|   -5.030149|   -4.872881|   -7.631238|    2.472744|
|         167|  7.3784e+00|  4.2358e-09|  7.7118e-01|  5.0000e-01|  5.0000e-01|  5.0000e-01|   -4.603274|   -4.679441|   -5.283939|   -5.030175|   -4.873156|   -7.630357|    2.472609|
|         168|  7.3777e+00|  4.2356e-09|  7.7118e-01|  5.0000e-01|  5.0000e-01|  5.0000e-01|   -4.603571|   -4.679806|   -5.284170|   -5.030205|   -4.873433|   -7.629474|    2.472471|
|         169|  7.3757e+00|  4.2354e-09|  7.7118e-01|  5.0000e-01|  5.0000e-01|  5.0000e-01|   -4.603870|   -4.680172|   -5.284403|   -5.030238|   -4.873712|   -7.628588|    2.472331|
|         170|  7.3743e+00|  4.2352e-09|  7.7118e-01|  5.0000e-01|  5.0000e-01|  5.0000e-01|   -4.604171|   -4.680540|   -5.284636|   -5.030273|   -4.873992|   -7.627700|    2.472189|
|         171|  7.3729e+00|  4.2350e-09|  7.7118e-01|  5.0000e-01|  5.0000e-01|  5.0000e-01|   -4.604472|   -4.680910|   -5.284869|   -5.030311|   -4.874273|   -7.626810|    2.472044|
|         172|  7.3717e+00|  4.2348e-09|  7.7118e-01|  5.0000e-01|  5.0000e-01|  5.0000e-01|   -4.604779|   -4.681284|   -5.285103|   -5.030358|   -4.874560|   -7.625918|    2.471897|
|         173|  7.3707e+00|  4.2346e-09|  7.7118e-01|  5.0000e-01|  5.0000e-01|  5.0000e-01|   -4.605088|   -4.681660|   -5.285337|   -5.030408|   -4.874848|   -7.625026|    2.471747|
|         174|  7.3692e+00|  4.2344e-09|  7.7118e-01|  5.0000e-01|  5.0000e-01|  5.0000e-01|   -4.605397|   -4.682037|   -5.285572|   -5.030460|   -4.875137|   -7.624132|    2.471596|
|         175|  7.3693e+00|  4.2342e-09|  7.7118e-01|  5.0000e-01|  5.0000e-01|  5.0000e-01|   -4.605707|   -4.682415|   -5.285806|   -5.030514|   -4.875427|   -7.623238|    2.471442|
|         176|  7.3678e+00|  4.2340e-09|  7.7118e-01|  5.0000e-01|  5.0000e-01|  5.0000e-01|   -4.606019|   -4.682795|   -5.286042|   -5.030570|   -4.875719|   -7.622344|    2.471286|
|         177|  7.3663e+00|  4.2338e-09|  7.7118e-01|  5.0000e-01|  5.0000e-01|  5.0000e-01|   -4.606333|   -4.683176|   -5.286279|   -5.030631|   -4.876012|   -7.621449|    2.471127|
|         178|  7.3646e+00|  4.2336e-09|  7.7118e-01|  5.0000e-01|  5.0000e-01|  5.0000e-01|   -4.606648|   -4.683559|   -5.286516|   -5.030695|   -4.876307|   -7.620555|    2.470967|
|         179|  7.3639e+00|  4.2334e-09|  7.7118e-01|  5.0000e-01|  5.0000e-01|  5.0000e-01|   -4.606966|   -4.683945|   -5.286754|   -5.030762|   -4.876605|   -7.619661|    2.470804|
|         180|  7.3635e+00|  4.2332e-09|  7.7118e-01|  5.0000e-01|  5.0000e-01|  5.0000e-01|   -4.607286|   -4.684333|   -5.286991|   -5.030833|   -4.876905|   -7.618768|    2.470638|
|         181|  7.3624e+00|  4.2330e-09|  7.7118e-01|  5.0000e-01|  5.0000e-01|  5.0000e-01|   -4.607606|   -4.684722|   -5.287228|   -5.030904|   -4.877205|   -7.617876|    2.470471|
|         182|  7.3612e+00|  4.2327e-09|  7.7118e-01|  5.0000e-01|  5.0000e-01|  5.0000e-01|   -4.607930|   -4.685114|   -5.287468|   -5.030981|   -4.877508|   -7.616986|    2.470302|
|         183|  7.3603e+00|  4.2325e-09|  7.7118e-01|  5.0000e-01|  5.0000e-01|  5.0000e-01|   -4.608262|   -4.685516|   -5.287715|   -5.031067|   -4.877822|   -7.616097|    2.470130|
|         184|  7.3587e+00|  4.2323e-09|  7.7118e-01|  5.0000e-01|  5.0000e-01|  5.0000e-01|   -4.608595|   -4.685919|   -5.287962|   -5.031154|   -4.878135|   -7.615210|    2.469956|
|         185|  7.3572e+00|  4.2321e-09|  7.7118e-01|  5.0000e-01|  5.0000e-01|  5.0000e-01|   -4.608928|   -4.686323|   -5.288208|   -5.031243|   -4.878449|   -7.614326|    2.469780|
|         186|  7.3561e+00|  4.2319e-09|  7.7118e-01|  5.0000e-01|  5.0000e-01|  5.0000e-01|   -4.609262|   -4.686728|   -5.288454|   -5.031335|   -4.878763|   -7.613443|    2.469602|
|         187|  7.3555e+00|  4.2317e-09|  7.7118e-01|  5.0000e-01|  5.0000e-01|  5.0000e-01|   -4.609598|   -4.687134|   -5.288701|   -5.031430|   -4.879079|   -7.612563|    2.469421|
|         188|  7.3542e+00|  4.2314e-09|  7.7118e-01|  5.0000e-01|  5.0000e-01|  5.0000e-01|   -4.609935|   -4.687541|   -5.288948|   -5.031527|   -4.879397|   -7.611684|    2.469239|
|         189|  7.3534e+00|  4.2312e-09|  7.7118e-01|  5.0000e-01|  5.0000e-01|  5.0000e-01|   -4.610272|   -4.687948|   -5.289195|   -5.031626|   -4.879715|   -7.610808|    2.469054|
|         190|  7.3531e+00|  4.2310e-09|  7.7118e-01|  5.0000e-01|  5.0000e-01|  5.0000e-01|   -4.610611|   -4.688357|   -5.289441|   -5.031729|   -4.880034|   -7.609933|    2.468867|
|         191|  7.3514e+00|  4.2308e-09|  7.7118e-01|  5.0000e-01|  5.0000e-01|  5.0000e-01|   -4.610951|   -4.688766|   -5.289688|   -5.031834|   -4.880354|   -7.609056|    2.468678|
|         192|  7.3503e+00|  4.2305e-09|  7.7118e-01|  5.0000e-01|  5.0000e-01|  5.0000e-01|   -4.611293|   -4.689177|   -5.289934|   -5.031944|   -4.880676|   -7.608184|    2.468487|
|         193|  7.3494e+00|  4.2303e-09|  7.7118e-01|  5.0000e-01|  5.0000e-01|  5.0000e-01|   -4.611636|   -4.689588|   -5.290182|   -5.032055|   -4.881000|   -7.607317|    2.468294|
|         194|  7.3473e+00|  4.2301e-09|  7.7118e-01|  5.0000e-01|  5.0000e-01|  5.0000e-01|   -4.611981|   -4.690002|   -5.290431|   -5.032170|   -4.881325|   -7.606454|    2.468098|
|         195|  7.3467e+00|  4.2299e-09|  7.7118e-01|  5.0000e-01|  5.0000e-01|  5.0000e-01|   -4.612328|   -4.690417|   -5.290679|   -5.032289|   -4.881652|   -7.605596|    2.467901|
|         196|  7.3454e+00|  4.2296e-09|  7.7118e-01|  5.0000e-01|  5.0000e-01|  5.0000e-01|   -4.612677|   -4.690834|   -5.290928|   -5.032412|   -4.881982|   -7.604743|    2.467701|
|         197|  7.3443e+00|  4.2294e-09|  7.7118e-01|  5.0000e-01|  5.0000e-01|  5.0000e-01|   -4.613027|   -4.691252|   -5.291177|   -5.032538|   -4.882313|   -7.603894|    2.467500|
|         198|  7.3440e+00|  4.2292e-09|  7.7118e-01|  5.0000e-01|  5.0000e-01|  5.0000e-01|   -4.613380|   -4.691672|   -5.291426|   -5.032668|   -4.882645|   -7.603051|    2.467296|
|         199|  7.3427e+00|  4.2289e-09|  7.7118e-01|  5.0000e-01|  5.0000e-01|  5.0000e-01|   -4.613735|   -4.692095|   -5.291679|   -5.032802|   -4.882982|   -7.602213|    2.467090|
|         200|  7.3417e+00|  4.2287e-09|  7.7118e-01|  5.0000e-01|  5.0000e-01|  5.0000e-01|   -4.614092|   -4.692520|   -5.291932|   -5.032939|   -4.883320|   -7.601380|    2.466882|
|         201|  7.3407e+00|  4.2284e-09|  7.7118e-01|  5.0000e-01|  5.0000e-01|  5.0000e-01|   -4.614451|   -4.692946|   -5.292187|   -5.033079|   -4.883660|   -7.600552|    2.466673|
|         202|  7.3408e+00|  4.2282e-09|  7.7118e-01|  5.0000e-01|  5.0000e-01|  5.0000e-01|   -4.614811|   -4.693373|   -5.292440|   -5.033222|   -4.884001|   -7.599729|    2.466461|
|         203|  7.3401e+00|  4.2280e-09|  7.7118e-01|  5.0000e-01|  5.0000e-01|  5.0000e-01|   -4.615173|   -4.693803|   -5.292693|   -5.033367|   -4.884344|   -7.598910|    2.466246|
|         204|  7.3387e+00|  4.2277e-09|  7.7118e-01|  5.0000e-01|  5.0000e-01|  5.0000e-01|   -4.615538|   -4.694236|   -5.292942|   -5.033518|   -4.884691|   -7.598098|    2.466030|
|         205|  7.3382e+00|  4.2275e-09|  7.7118e-01|  5.0000e-01|  5.0000e-01|  5.0000e-01|   -4.615905|   -4.694671|   -5.293190|   -5.033671|   -4.885039|   -7.597291|    2.465812|
|         206|  7.3373e+00|  4.2272e-09|  7.7118e-01|  5.0000e-01|  5.0000e-01|  5.0000e-01|   -4.616274|   -4.695108|   -5.293438|   -5.033828|   -4.885390|   -7.596490|    2.465592|
|         207|  7.3365e+00|  4.2270e-09|  7.7118e-01|  5.0000e-01|  5.0000e-01|  5.0000e-01|   -4.616646|   -4.695547|   -5.293685|   -5.033990|   -4.885742|   -7.595697|    2.465370|
|         208|  7.3364e+00|  4.2268e-09|  7.7118e-01|  5.0000e-01|  5.0000e-01|  5.0000e-01|   -4.617019|   -4.695987|   -5.293931|   -5.034155|   -4.886097|   -7.594909|    2.465145|
|         209|  7.3355e+00|  4.2265e-09|  7.7118e-01|  5.0000e-01|  5.0000e-01|  5.0000e-01|   -4.617394|   -4.696430|   -5.294178|   -5.034325|   -4.886454|   -7.594128|    2.464919|
|         210|  7.3340e+00|  4.2263e-09|  7.7118e-01|  5.0000e-01|  5.0000e-01|  5.0000e-01|   -4.617771|   -4.696874|   -5.294423|   -5.034499|   -4.886812|   -7.593353|    2.464691|
|         211|  7.3330e+00|  4.2260e-09|  7.7118e-01|  5.0000e-01|  5.0000e-01|  5.0000e-01|   -4.618151|   -4.697321|   -5.294667|   -5.034677|   -4.887174|   -7.592585|    2.464460|
|         212|  7.3318e+00|  4.2258e-09|  7.7118e-01|  5.0000e-01|  5.0000e-01|  5.0000e-01|   -4.618532|   -4.697769|   -5.294910|   -5.034859|   -4.887538|   -7.591822|    2.464228|
|         213|  7.3312e+00|  4.2255e-09|  7.7118e-01|  5.0000e-01|  5.0000e-01|  5.0000e-01|   -4.618913|   -4.698218|   -5.295151|   -5.035044|   -4.887902|   -7.591066|    2.463993|
|         214|  7.3301e+00|  4.2253e-09|  7.7118e-01|  5.0000e-01|  5.0000e-01|  5.0000e-01|   -4.619295|   -4.698669|   -5.295391|   -5.035231|   -4.888268|   -7.590317|    2.463757|
|         215|  7.3291e+00|  4.2250e-09|  7.7118e-01|  5.0000e-01|  5.0000e-01|  5.0000e-01|   -4.619679|   -4.699121|   -5.295629|   -5.035423|   -4.888635|   -7.589574|    2.463518|
|         216|  7.3280e+00|  4.2248e-09|  7.7118e-01|  5.0000e-01|  5.0000e-01|  5.0000e-01|   -4.620064|   -4.699574|   -5.295867|   -5.035617|   -4.889003|   -7.588839|    2.463277|
|         217|  7.3272e+00|  4.2245e-09|  7.7118e-01|  5.0000e-01|  5.0000e-01|  5.0000e-01|   -4.620454|   -4.700032|   -5.296105|   -5.035818|   -4.889378|   -7.588111|    2.463035|
|         218|  7.3268e+00|  4.2242e-09|  7.7118e-01|  5.0000e-01|  5.0000e-01|  5.0000e-01|   -4.620848|   -4.700495|   -5.296345|   -5.036026|   -4.889756|   -7.587390|    2.462790|
|         219|  7.3258e+00|  4.2240e-09|  7.7118e-01|  5.0000e-01|  5.0000e-01|  5.0000e-01|   -4.621246|   -4.700961|   -5.296585|   -5.036241|   -4.890139|   -7.586675|    2.462543|
|         220|  7.3251e+00|  4.2237e-09|  7.7118e-01|  5.0000e-01|  5.0000e-01|  5.0000e-01|   -4.621645|   -4.701429|   -5.296825|   -5.036459|   -4.890523|   -7.585967|    2.462294|
|         221|  7.3237e+00|  4.2235e-09|  7.7118e-01|  5.0000e-01|  5.0000e-01|  5.0000e-01|   -4.622046|   -4.701898|   -5.297064|   -5.036680|   -4.890909|   -7.585266|    2.462043|
|         222|  7.3235e+00|  4.2232e-09|  7.7118e-01|  5.0000e-01|  5.0000e-01|  5.0000e-01|   -4.622447|   -4.702368|   -5.297304|   -5.036903|   -4.891296|   -7.584572|    2.461790|
|         223|  7.3237e+00|  4.2230e-09|  7.7118e-01|  5.0000e-01|  5.0000e-01|  5.0000e-01|   -4.622849|   -4.702839|   -5.297543|   -5.037129|   -4.891684|   -7.583885|    2.461535|
|         224|  7.3238e+00|  4.2227e-09|  7.7118e-01|  5.0000e-01|  5.0000e-01|  5.0000e-01|   -4.623251|   -4.703312|   -5.297780|   -5.037359|   -4.892073|   -7.583201|    2.461278|
|         225|  7.3235e+00|  4.2224e-09|  7.7118e-01|  5.0000e-01|  5.0000e-01|  5.0000e-01|   -4.623656|   -4.703785|   -5.298017|   -5.037591|   -4.892464|   -7.582524|    2.461019|
|         226|  7.3229e+00|  4.2222e-09|  7.7118e-01|  5.0000e-01|  5.0000e-01|  5.0000e-01|   -4.624060|   -4.704259|   -5.298255|   -5.037825|   -4.892855|   -7.581855|    2.460758|
|         227|  7.3223e+00|  4.2219e-09|  7.7118e-01|  5.0000e-01|  5.0000e-01|  5.0000e-01|   -4.624465|   -4.704734|   -5.298492|   -5.038061|   -4.893247|   -7.581192|    2.460495|
|         228|  7.3227e+00|  4.2216e-09|  7.7118e-01|  5.0000e-01|  5.0000e-01|  5.0000e-01|   -4.624870|   -4.705209|   -5.298727|   -5.038299|   -4.893640|   -7.580537|    2.460229|
|         229|  7.3216e+00|  4.2214e-09|  7.7118e-01|  5.0000e-01|  5.0000e-01|  5.0000e-01|   -4.625280|   -4.705690|   -5.298962|   -5.038542|   -4.894037|   -7.579889|    2.459962|
|         230|  7.3204e+00|  4.2211e-09|  7.7118e-01|  5.0000e-01|  5.0000e-01|  5.0000e-01|   -4.625691|   -4.706172|   -5.299196|   -5.038789|   -4.894436|   -7.579249|    2.459692|
|         231|  7.3191e+00|  4.2208e-09|  7.7118e-01|  5.0000e-01|  5.0000e-01|  5.0000e-01|   -4.626103|   -4.706655|   -5.299429|   -5.039037|   -4.894836|   -7.578616|    2.459421|
|         232|  7.3181e+00|  4.2206e-09|  7.7118e-01|  5.0000e-01|  5.0000e-01|  5.0000e-01|   -4.626516|   -4.707139|   -5.299663|   -5.039288|   -4.895237|   -7.577990|    2.459147|
|         233|  7.3172e+00|  4.2203e-09|  7.7118e-01|  5.0000e-01|  5.0000e-01|  5.0000e-01|   -4.626929|   -4.707624|   -5.299896|   -5.039542|   -4.895639|   -7.577372|    2.458872|
|         234|  7.3172e+00|  4.2200e-09|  7.7118e-01|  5.0000e-01|  5.0000e-01|  5.0000e-01|   -4.627343|   -4.708108|   -5.300127|   -5.039798|   -4.896040|   -7.576761|    2.458594|
|         235|  7.3163e+00|  4.2197e-09|  7.7118e-01|  5.0000e-01|  5.0000e-01|  5.0000e-01|   -4.627756|   -4.708593|   -5.300357|   -5.040057|   -4.896443|   -7.576157|    2.458314|
|         236|  7.3152e+00|  4.2195e-09|  7.7118e-01|  5.0000e-01|  5.0000e-01|  5.0000e-01|   -4.628170|   -4.709079|   -5.300585|   -5.040319|   -4.896846|   -7.575561|    2.458032|
|         237|  7.3142e+00|  4.2192e-09|  7.7118e-01|  5.0000e-01|  5.0000e-01|  5.0000e-01|   -4.628585|   -4.709564|   -5.300812|   -5.040584|   -4.897248|   -7.574972|    2.457748|
|         238|  7.3130e+00|  4.2189e-09|  7.7118e-01|  5.0000e-01|  5.0000e-01|  5.0000e-01|   -4.628999|   -4.710050|   -5.301037|   -5.040851|   -4.897652|   -7.574390|    2.457462|
|         239|  7.3132e+00|  4.2186e-09|  7.7118e-01|  5.0000e-01|  5.0000e-01|  5.0000e-01|   -4.629414|   -4.710535|   -5.301259|   -5.041120|   -4.898055|   -7.573815|    2.457174|
|         240|  7.3128e+00|  4.2184e-09|  7.7118e-01|  5.0000e-01|  5.0000e-01|  5.0000e-01|   -4.629828|   -4.711020|   -5.301480|   -5.041392|   -4.898458|   -7.573248|    2.456884|
|         241|  7.3121e+00|  4.2181e-09|  7.7118e-01|  5.0000e-01|  5.0000e-01|  5.0000e-01|   -4.630244|   -4.711507|   -5.301700|   -5.041669|   -4.898863|   -7.572687|    2.456591|
|         242|  7.3113e+00|  4.2178e-09|  7.7118e-01|  5.0000e-01|  5.0000e-01|  5.0000e-01|   -4.630662|   -4.711994|   -5.301922|   -5.041950|   -4.899270|   -7.572134|    2.456297|
|         243|  7.3113e+00|  4.2175e-09|  7.7118e-01|  5.0000e-01|  5.0000e-01|  5.0000e-01|   -4.631085|   -4.712486|   -5.302142|   -5.042237|   -4.899681|   -7.571589|    2.456000|
|         244|  7.3112e+00|  4.2173e-09|  7.7118e-01|  5.0000e-01|  5.0000e-01|  5.0000e-01|   -4.631507|   -4.712977|   -5.302362|   -5.042525|   -4.900091|   -7.571051|    2.455701|
|         245|  7.3104e+00|  4.2170e-09|  7.7118e-01|  5.0000e-01|  5.0000e-01|  5.0000e-01|   -4.631929|   -4.713467|   -5.302581|   -5.042816|   -4.900502|   -7.570520|    2.455401|
|         246|  7.3101e+00|  4.2167e-09|  7.7118e-01|  5.0000e-01|  5.0000e-01|  5.0000e-01|   -4.632351|   -4.713956|   -5.302798|   -5.043109|   -4.900911|   -7.569997|    2.455098|
|         247|  7.3093e+00|  4.2164e-09|  7.7118e-01|  5.0000e-01|  5.0000e-01|  5.0000e-01|   -4.632772|   -4.714445|   -5.303014|   -5.043403|   -4.901320|   -7.569480|    2.454793|
|         248|  7.3085e+00|  4.2161e-09|  7.7118e-01|  5.0000e-01|  5.0000e-01|  5.0000e-01|   -4.633192|   -4.714932|   -5.303228|   -5.043698|   -4.901728|   -7.568972|    2.454485|
|         249|  7.3087e+00|  4.2158e-09|  7.7118e-01|  5.0000e-01|  5.0000e-01|  5.0000e-01|   -4.633611|   -4.715419|   -5.303441|   -5.043993|   -4.902135|   -7.568470|    2.454176|
|         250|  7.3081e+00|  4.2156e-09|  7.7118e-01|  5.0000e-01|  5.0000e-01|  5.0000e-01|   -4.634030|   -4.715905|   -5.303652|   -5.044290|   -4.902541|   -7.567976|    2.453865|
|         251|  7.3073e+00|  4.2153e-09|  7.7118e-01|  5.0000e-01|  5.0000e-01|  5.0000e-01|   -4.634448|   -4.716389|   -5.303862|   -5.044589|   -4.902946|   -7.567489|    2.453551|
|         252|  7.3068e+00|  4.2150e-09|  7.7118e-01|  5.0000e-01|  5.0000e-01|  5.0000e-01|   -4.634866|   -4.716874|   -5.304071|   -5.044888|   -4.903351|   -7.567010|    2.453236|
|         253|  7.3071e+00|  4.2147e-09|  7.7118e-01|  5.0000e-01|  5.0000e-01|  5.0000e-01|   -4.635283|   -4.717359|   -5.304279|   -5.045188|   -4.903755|   -7.566537|    2.452918|
|         254|  7.3073e+00|  4.2144e-09|  7.7118e-01|  5.0000e-01|  5.0000e-01|  5.0000e-01|   -4.635699|   -4.717842|   -5.304487|   -5.045489|   -4.904158|   -7.566072|    2.452598|
|         255|  7.3065e+00|  4.2141e-09|  7.7118e-01|  5.0000e-01|  5.0000e-01|  5.0000e-01|   -4.636115|   -4.718324|   -5.304693|   -5.045791|   -4.904561|   -7.565614|    2.452276|
|         256|  7.3059e+00|  4.2138e-09|  7.7118e-01|  5.0000e-01|  5.0000e-01|  5.0000e-01|   -4.636531|   -4.718805|   -5.304897|   -5.046094|   -4.904962|   -7.565162|    2.451952|
|         257|  7.3051e+00|  4.2135e-09|  7.7118e-01|  5.0000e-01|  5.0000e-01|  5.0000e-01|   -4.636945|   -4.719285|   -5.305100|   -5.046398|   -4.905363|   -7.564719|    2.451626|
|         258|  7.3040e+00|  4.2133e-09|  7.7118e-01|  5.0000e-01|  5.0000e-01|  5.0000e-01|   -4.637359|   -4.719764|   -5.305302|   -5.046702|   -4.905762|   -7.564281|    2.451298|
|         259|  7.3034e+00|  4.2130e-09|  7.7118e-01|  5.0000e-01|  5.0000e-01|  5.0000e-01|   -4.637770|   -4.720240|   -5.305501|   -5.047005|   -4.906158|   -7.563851|    2.450967|
|         260|  7.3021e+00|  4.2127e-09|  7.7118e-01|  5.0000e-01|  5.0000e-01|  5.0000e-01|   -4.638181|   -4.720715|   -5.305699|   -5.047310|   -4.906553|   -7.563428|    2.450635|
|         261|  7.3011e+00|  4.2124e-09|  7.7118e-01|  5.0000e-01|  5.0000e-01|  5.0000e-01|   -4.638592|   -4.721190|   -5.305896|   -5.047617|   -4.906948|   -7.563012|    2.450300|
|         262|  7.3002e+00|  4.2121e-09|  7.7118e-01|  5.0000e-01|  5.0000e-01|  5.0000e-01|   -4.639003|   -4.721664|   -5.306092|   -5.047925|   -4.907342|   -7.562602|    2.449963|
|         263|  7.3000e+00|  4.2118e-09|  7.7118e-01|  5.0000e-01|  5.0000e-01|  5.0000e-01|   -4.639413|   -4.722137|   -5.306286|   -5.048236|   -4.907735|   -7.562200|    2.449625|
|         264|  7.2995e+00|  4.2115e-09|  7.7118e-01|  5.0000e-01|  5.0000e-01|  5.0000e-01|   -4.639824|   -4.722610|   -5.306479|   -5.048549|   -4.908129|   -7.561804|    2.449284|
|         265|  7.2986e+00|  4.2112e-09|  7.7118e-01|  5.0000e-01|  5.0000e-01|  5.0000e-01|   -4.640233|   -4.723082|   -5.306669|   -5.048862|   -4.908521|   -7.561415|    2.448941|
|         266|  7.2980e+00|  4.2109e-09|  7.7118e-01|  5.0000e-01|  5.0000e-01|  5.0000e-01|   -4.640643|   -4.723553|   -5.306858|   -5.049178|   -4.908913|   -7.561033|    2.448596|
|         267|  7.2969e+00|  4.2106e-09|  7.7118e-01|  5.0000e-01|  5.0000e-01|  5.0000e-01|   -4.641053|   -4.724025|   -5.307046|   -5.049497|   -4.909305|   -7.560658|    2.448248|
|         268|  7.2960e+00|  4.2103e-09|  7.7118e-01|  5.0000e-01|  5.0000e-01|  5.0000e-01|   -4.641464|   -4.724497|   -5.307233|   -5.049821|   -4.909698|   -7.560290|    2.447899|
|         269|  7.2947e+00|  4.2100e-09|  7.7117e-01|  5.0000e-01|  5.0000e-01|  5.0000e-01|   -4.641875|   -4.724969|   -5.307419|   -5.050146|   -4.910092|   -7.559928|    2.447548|
|         270|  7.2946e+00|  4.2097e-09|  7.7117e-01|  5.0000e-01|  5.0000e-01|  5.0000e-01|   -4.642287|   -4.725441|   -5.307602|   -5.050474|   -4.910485|   -7.559573|    2.447194|
|         271|  7.2934e+00|  4.2094e-09|  7.7117e-01|  5.0000e-01|  5.0000e-01|  5.0000e-01|   -4.642699|   -4.725913|   -5.307785|   -5.050804|   -4.910878|   -7.559224|    2.446839|
|         272|  7.2922e+00|  4.2091e-09|  7.7117e-01|  5.0000e-01|  5.0000e-01|  5.0000e-01|   -4.643111|   -4.726386|   -5.307966|   -5.051138|   -4.911272|   -7.558882|    2.446481|
|         273|  7.2914e+00|  4.2088e-09|  7.7117e-01|  5.0000e-01|  5.0000e-01|  5.0000e-01|   -4.643525|   -4.726857|   -5.308146|   -5.051475|   -4.911667|   -7.558546|    2.446122|
|         274|  7.2909e+00|  4.2085e-09|  7.7117e-01|  5.0000e-01|  5.0000e-01|  5.0000e-01|   -4.643938|   -4.727329|   -5.308324|   -5.051814|   -4.912060|   -7.558216|    2.445760|
|         275|  7.2897e+00|  4.2082e-09|  7.7117e-01|  5.0000e-01|  5.0000e-01|  5.0000e-01|   -4.644352|   -4.727802|   -5.308499|   -5.052158|   -4.912456|   -7.557892|    2.445396|
|         276|  7.2886e+00|  4.2079e-09|  7.7117e-01|  5.0000e-01|  5.0000e-01|  5.0000e-01|   -4.644771|   -4.728279|   -5.308673|   -5.052509|   -4.912855|   -7.557574|    2.445030|
|         277|  7.2876e+00|  4.2076e-09|  7.7117e-01|  5.0000e-01|  5.0000e-01|  5.0000e-01|   -4.645191|   -4.728757|   -5.308845|   -5.052865|   -4.913256|   -7.557263|    2.444663|
|         278|  7.2875e+00|  4.2073e-09|  7.7117e-01|  5.0000e-01|  5.0000e-01|  5.0000e-01|   -4.645612|   -4.729235|   -5.309017|   -5.053223|   -4.913658|   -7.556957|    2.444293|
|         279|  7.2865e+00|  4.2070e-09|  7.7117e-01|  5.0000e-01|  5.0000e-01|  5.0000e-01|   -4.646035|   -4.729714|   -5.309189|   -5.053585|   -4.914060|   -7.556658|    2.443921|
|         280|  7.2855e+00|  4.2067e-09|  7.7117e-01|  5.0000e-01|  5.0000e-01|  5.0000e-01|   -4.646458|   -4.730194|   -5.309360|   -5.053949|   -4.914463|   -7.556365|    2.443547|
|         281|  7.2850e+00|  4.2064e-09|  7.7117e-01|  5.0000e-01|  5.0000e-01|  5.0000e-01|   -4.646882|   -4.730673|   -5.309530|   -5.054315|   -4.914867|   -7.556077|    2.443171|
|         282|  7.2841e+00|  4.2061e-09|  7.7117e-01|  5.0000e-01|  5.0000e-01|  5.0000e-01|   -4.647306|   -4.731154|   -5.309699|   -5.054684|   -4.915271|   -7.555796|    2.442793|
|         283|  7.2832e+00|  4.2058e-09|  7.7117e-01|  5.0000e-01|  5.0000e-01|  5.0000e-01|   -4.647731|   -4.731634|   -5.309865|   -5.055056|   -4.915675|   -7.555521|    2.442414|
|         284|  7.2822e+00|  4.2055e-09|  7.7117e-01|  5.0000e-01|  5.0000e-01|  5.0000e-01|   -4.648157|   -4.732115|   -5.310030|   -5.055430|   -4.916080|   -7.555251|    2.442032|
|         285|  7.2819e+00|  4.2052e-09|  7.7117e-01|  5.0000e-01|  5.0000e-01|  5.0000e-01|   -4.648584|   -4.732596|   -5.310194|   -5.055806|   -4.916485|   -7.554987|    2.441648|
|         286|  7.2809e+00|  4.2049e-09|  7.7117e-01|  5.0000e-01|  5.0000e-01|  5.0000e-01|   -4.649011|   -4.733078|   -5.310356|   -5.056184|   -4.916890|   -7.554729|    2.441262|
|         287|  7.2798e+00|  4.2046e-09|  7.7117e-01|  5.0000e-01|  5.0000e-01|  5.0000e-01|   -4.649438|   -4.733560|   -5.310516|   -5.056563|   -4.917295|   -7.554477|    2.440875|
|         288|  7.2790e+00|  4.2043e-09|  7.7117e-01|  5.0000e-01|  5.0000e-01|  5.0000e-01|   -4.649864|   -4.734042|   -5.310674|   -5.056942|   -4.917700|   -7.554230|    2.440485|
|         289|  7.2783e+00|  4.2040e-09|  7.7117e-01|  5.0000e-01|  5.0000e-01|  5.0000e-01|   -4.650291|   -4.734525|   -5.310830|   -5.057324|   -4.918105|   -7.553989|    2.440094|
|         290|  7.2775e+00|  4.2037e-09|  7.7117e-01|  5.0000e-01|  5.0000e-01|  5.0000e-01|   -4.650719|   -4.735008|   -5.310986|   -5.057707|   -4.918511|   -7.553754|    2.439700|
|         291|  7.2767e+00|  4.2034e-09|  7.7117e-01|  5.0000e-01|  5.0000e-01|  5.0000e-01|   -4.651147|   -4.735491|   -5.311140|   -5.058092|   -4.918917|   -7.553525|    2.439305|
|         292|  7.2757e+00|  4.2031e-09|  7.7117e-01|  5.0000e-01|  5.0000e-01|  5.0000e-01|   -4.651576|   -4.735974|   -5.311291|   -5.058478|   -4.919323|   -7.553301|    2.438908|
|         293|  7.2758e+00|  4.2028e-09|  7.7117e-01|  5.0000e-01|  5.0000e-01|  5.0000e-01|   -4.652004|   -4.736458|   -5.311439|   -5.058865|   -4.919729|   -7.553082|    2.438509|
|         294|  7.2756e+00|  4.2025e-09|  7.7117e-01|  5.0000e-01|  5.0000e-01|  5.0000e-01|   -4.652432|   -4.736943|   -5.311588|   -5.059252|   -4.920135|   -7.552868|    2.438108|
|         295|  7.2752e+00|  4.2022e-09|  7.7117e-01|  5.0000e-01|  5.0000e-01|  5.0000e-01|   -4.652860|   -4.737428|   -5.311736|   -5.059641|   -4.920541|   -7.552660|    2.437705|
|         296|  7.2744e+00|  4.2019e-09|  7.7117e-01|  5.0000e-01|  5.0000e-01|  5.0000e-01|   -4.653288|   -4.737913|   -5.311882|   -5.060031|   -4.920948|   -7.552457|    2.437301|
|         297|  7.2742e+00|  4.2016e-09|  7.7117e-01|  5.0000e-01|  5.0000e-01|  5.0000e-01|   -4.653719|   -4.738402|   -5.312028|   -5.060425|   -4.921357|   -7.552259|    2.436895|
|         298|  7.2741e+00|  4.2013e-09|  7.7117e-01|  5.0000e-01|  5.0000e-01|  5.0000e-01|   -4.654150|   -4.738891|   -5.312173|   -5.060821|   -4.921767|   -7.552066|    2.436486|
|         299|  7.2743e+00|  4.2010e-09|  7.7117e-01|  5.0000e-01|  5.0000e-01|  5.0000e-01|   -4.654581|   -4.739380|   -5.312317|   -5.061217|   -4.922177|   -7.551877|    2.436077|
|         300|  7.2737e+00|  4.2007e-09|  7.7117e-01|  5.0000e-01|  5.0000e-01|  5.0000e-01|   -4.655012|   -4.739870|   -5.312459|   -5.061615|   -4.922587|   -7.551694|    2.435665|
+-----------------------------------------------------------------------+
|        File Writing Summary       |              Filename             |
+-----------------------------------------------------------------------+
|SU2 binary restart                 |restart_flow.dat                   |
|Paraview                           |flow.vtu                           |
|Paraview surface                   |surface_flow.vtu                   |
+-----------------------------------------------------------------------+
+-------------------------------------------------------------------------------------------------------------------------------------------------------------------------------------+
|  Inner_Iter|   Time(sec)|      Min DT|      Max DT|     Min CFL|     Max CFL|     Avg CFL|    rms[Rho]|   rms[RhoU]|   rms[RhoV]|   rms[RhoW]|   rms[RhoE]|     rms[nu]|          CD|
+-------------------------------------------------------------------------------------------------------------------------------------------------------------------------------------+
|         301|  7.3511e+00|  4.2004e-09|  7.7117e-01|  5.0000e-01|  5.0000e-01|  5.0000e-01|   -4.655444|   -4.740360|   -5.312602|   -5.062014|   -4.922998|   -7.551516|    2.435251|
|         302|  7.3506e+00|  4.2001e-09|  7.7117e-01|  5.0000e-01|  5.0000e-01|  5.0000e-01|   -4.655875|   -4.740849|   -5.312742|   -5.062413|   -4.923408|   -7.551343|    2.434836|
|         303|  7.3500e+00|  4.1998e-09|  7.7117e-01|  5.0000e-01|  5.0000e-01|  5.0000e-01|   -4.656305|   -4.741337|   -5.312881|   -5.062811|   -4.923817|   -7.551174|    2.434419|
|         304|  7.3489e+00|  4.1995e-09|  7.7117e-01|  5.0000e-01|  5.0000e-01|  5.0000e-01|   -4.656736|   -4.741826|   -5.313020|   -5.063212|   -4.924227|   -7.551010|    2.434001|
|         305|  7.3477e+00|  4.1992e-09|  7.7117e-01|  5.0000e-01|  5.0000e-01|  5.0000e-01|   -4.657167|   -4.742316|   -5.313159|   -5.063615|   -4.924637|   -7.550851|    2.433580|
|         306|  7.3467e+00|  4.1989e-09|  7.7117e-01|  5.0000e-01|  5.0000e-01|  5.0000e-01|   -4.657599|   -4.742805|   -5.313296|   -5.064019|   -4.925048|   -7.550696|    2.433158|
|         307|  7.3453e+00|  4.1986e-09|  7.7117e-01|  5.0000e-01|  5.0000e-01|  5.0000e-01|   -4.658030|   -4.743295|   -5.313430|   -5.064424|   -4.925458|   -7.550546|    2.432735|
|         308|  7.3437e+00|  4.1983e-09|  7.7117e-01|  5.0000e-01|  5.0000e-01|  5.0000e-01|   -4.658460|   -4.743784|   -5.313561|   -5.064830|   -4.925868|   -7.550401|    2.432309|
|         309|  7.3423e+00|  4.1980e-09|  7.7117e-01|  5.0000e-01|  5.0000e-01|  5.0000e-01|   -4.658889|   -4.744273|   -5.313689|   -5.065237|   -4.926276|   -7.550260|    2.431882|
|         310|  7.3409e+00|  4.1977e-09|  7.7117e-01|  5.0000e-01|  5.0000e-01|  5.0000e-01|   -4.659319|   -4.744762|   -5.313816|   -5.065644|   -4.926685|   -7.550124|    2.431454|
|         311|  7.3395e+00|  4.1974e-09|  7.7117e-01|  5.0000e-01|  5.0000e-01|  5.0000e-01|   -4.659747|   -4.745250|   -5.313940|   -5.066052|   -4.927094|   -7.549991|    2.431024|
|         312|  7.3383e+00|  4.1971e-09|  7.7117e-01|  5.0000e-01|  5.0000e-01|  5.0000e-01|   -4.660175|   -4.745738|   -5.314063|   -5.066461|   -4.927501|   -7.549864|    2.430592|
|         313|  7.3370e+00|  4.1968e-09|  7.7117e-01|  5.0000e-01|  5.0000e-01|  5.0000e-01|   -4.660602|   -4.746226|   -5.314183|   -5.066871|   -4.927909|   -7.549740|    2.430159|
|         314|  7.3357e+00|  4.1964e-09|  7.7117e-01|  5.0000e-01|  5.0000e-01|  5.0000e-01|   -4.661029|   -4.746714|   -5.314301|   -5.067283|   -4.928317|   -7.549621|    2.429724|
|         315|  7.3343e+00|  4.1961e-09|  7.7117e-01|  5.0000e-01|  5.0000e-01|  5.0000e-01|   -4.661455|   -4.747201|   -5.314419|   -5.067696|   -4.928724|   -7.549506|    2.429288|
|         316|  7.3335e+00|  4.1958e-09|  7.7117e-01|  5.0000e-01|  5.0000e-01|  5.0000e-01|   -4.661882|   -4.747689|   -5.314537|   -5.068110|   -4.929132|   -7.549395|    2.428850|
|         317|  7.3323e+00|  4.1955e-09|  7.7117e-01|  5.0000e-01|  5.0000e-01|  5.0000e-01|   -4.662307|   -4.748176|   -5.314653|   -5.068525|   -4.929539|   -7.549289|    2.428411|
|         318|  7.3311e+00|  4.1952e-09|  7.7117e-01|  5.0000e-01|  5.0000e-01|  5.0000e-01|   -4.662731|   -4.748662|   -5.314767|   -5.068940|   -4.929945|   -7.549186|    2.427970|
|         319|  7.3300e+00|  4.1949e-09|  7.7117e-01|  5.0000e-01|  5.0000e-01|  5.0000e-01|   -4.663156|   -4.749148|   -5.314881|   -5.069357|   -4.930352|   -7.549088|    2.427528|
|         320|  7.3286e+00|  4.1946e-09|  7.7117e-01|  5.0000e-01|  5.0000e-01|  5.0000e-01|   -4.663580|   -4.749634|   -5.314994|   -5.069776|   -4.930759|   -7.548993|    2.427084|
|         321|  7.3275e+00|  4.1943e-09|  7.7117e-01|  5.0000e-01|  5.0000e-01|  5.0000e-01|   -4.664004|   -4.750121|   -5.315106|   -5.070197|   -4.931167|   -7.548902|    2.426639|
|         322|  7.3265e+00|  4.1940e-09|  7.7117e-01|  5.0000e-01|  5.0000e-01|  5.0000e-01|   -4.664428|   -4.750607|   -5.315215|   -5.070621|   -4.931574|   -7.548815|    2.426193|
|         323|  7.3259e+00|  4.1937e-09|  7.7117e-01|  5.0000e-01|  5.0000e-01|  5.0000e-01|   -4.664852|   -4.751093|   -5.315321|   -5.071045|   -4.931981|   -7.548732|    2.425745|
|         324|  7.3245e+00|  4.1934e-09|  7.7117e-01|  5.0000e-01|  5.0000e-01|  5.0000e-01|   -4.665275|   -4.751581|   -5.315426|   -5.071472|   -4.932388|   -7.548653|    2.425296|
|         325|  7.3232e+00|  4.1931e-09|  7.7117e-01|  5.0000e-01|  5.0000e-01|  5.0000e-01|   -4.665699|   -4.752069|   -5.315528|   -5.071901|   -4.932796|   -7.548577|    2.424846|
|         326|  7.3222e+00|  4.1928e-09|  7.7117e-01|  5.0000e-01|  5.0000e-01|  5.0000e-01|   -4.666122|   -4.752556|   -5.315628|   -5.072332|   -4.933203|   -7.548505|    2.424394|
|         327|  7.3217e+00|  4.1925e-09|  7.7117e-01|  5.0000e-01|  5.0000e-01|  5.0000e-01|   -4.666544|   -4.753044|   -5.315726|   -5.072764|   -4.933610|   -7.548437|    2.423941|
|         328|  7.3209e+00|  4.1922e-09|  7.7117e-01|  5.0000e-01|  5.0000e-01|  5.0000e-01|   -4.666965|   -4.753531|   -5.315822|   -5.073195|   -4.934016|   -7.548372|    2.423487|
|         329|  7.3202e+00|  4.1919e-09|  7.7117e-01|  5.0000e-01|  5.0000e-01|  5.0000e-01|   -4.667386|   -4.754018|   -5.315916|   -5.073628|   -4.934422|   -7.548311|    2.423032|
|         330|  7.3190e+00|  4.1916e-09|  7.7117e-01|  5.0000e-01|  5.0000e-01|  5.0000e-01|   -4.667805|   -4.754505|   -5.316010|   -5.074060|   -4.934828|   -7.548253|    2.422575|
|         331|  7.3178e+00|  4.1913e-09|  7.7117e-01|  5.0000e-01|  5.0000e-01|  5.0000e-01|   -4.668224|   -4.754992|   -5.316104|   -5.074494|   -4.935233|   -7.548198|    2.422117|
|         332|  7.3171e+00|  4.1910e-09|  7.7117e-01|  5.0000e-01|  5.0000e-01|  5.0000e-01|   -4.668642|   -4.755477|   -5.316196|   -5.074928|   -4.935638|   -7.548147|    2.421659|
|         333|  7.3166e+00|  4.1907e-09|  7.7117e-01|  5.0000e-01|  5.0000e-01|  5.0000e-01|   -4.669059|   -4.755963|   -5.316286|   -5.075363|   -4.936043|   -7.548099|    2.421198|
|         334|  7.3159e+00|  4.1905e-09|  7.7117e-01|  5.0000e-01|  5.0000e-01|  5.0000e-01|   -4.669475|   -4.756448|   -5.316374|   -5.075797|   -4.936447|   -7.548055|    2.420737|
|         335|  7.3152e+00|  4.1902e-09|  7.7117e-01|  5.0000e-01|  5.0000e-01|  5.0000e-01|   -4.669889|   -4.756931|   -5.316460|   -5.076231|   -4.936850|   -7.548013|    2.420275|
|         336|  7.3140e+00|  4.1899e-09|  7.7117e-01|  5.0000e-01|  5.0000e-01|  5.0000e-01|   -4.670302|   -4.757414|   -5.316543|   -5.076665|   -4.937251|   -7.547975|    2.419812|
|         337|  7.3134e+00|  4.1896e-09|  7.7117e-01|  5.0000e-01|  5.0000e-01|  5.0000e-01|   -4.670714|   -4.757896|   -5.316625|   -5.077100|   -4.937653|   -7.547940|    2.419347|
|         338|  7.3128e+00|  4.1893e-09|  7.7117e-01|  5.0000e-01|  5.0000e-01|  5.0000e-01|   -4.671125|   -4.758376|   -5.316707|   -5.077535|   -4.938053|   -7.547908|    2.418882|
|         339|  7.3118e+00|  4.1890e-09|  7.7117e-01|  5.0000e-01|  5.0000e-01|  5.0000e-01|   -4.671532|   -4.758854|   -5.316785|   -5.077967|   -4.938450|   -7.547880|    2.418415|
|         340|  7.3114e+00|  4.1887e-09|  7.7117e-01|  5.0000e-01|  5.0000e-01|  5.0000e-01|   -4.671939|   -4.759332|   -5.316863|   -5.078401|   -4.938848|   -7.547855|    2.417948|
|         341|  7.3103e+00|  4.1884e-09|  7.7117e-01|  5.0000e-01|  5.0000e-01|  5.0000e-01|   -4.672344|   -4.759809|   -5.316939|   -5.078834|   -4.939244|   -7.547833|    2.417479|
|         342|  7.3098e+00|  4.1881e-09|  7.7117e-01|  5.0000e-01|  5.0000e-01|  5.0000e-01|   -4.672747|   -4.760285|   -5.317012|   -5.079268|   -4.939639|   -7.547814|    2.417010|
|         343|  7.3093e+00|  4.1878e-09|  7.7117e-01|  5.0000e-01|  5.0000e-01|  5.0000e-01|   -4.673146|   -4.760759|   -5.317081|   -5.079699|   -4.940031|   -7.547798|    2.416539|
|         344|  7.3089e+00|  4.1875e-09|  7.7117e-01|  5.0000e-01|  5.0000e-01|  5.0000e-01|   -4.673544|   -4.761231|   -5.317148|   -5.080130|   -4.940422|   -7.547785|    2.416068|
|         345|  7.3079e+00|  4.1872e-09|  7.7117e-01|  5.0000e-01|  5.0000e-01|  5.0000e-01|   -4.673940|   -4.761702|   -5.317215|   -5.080561|   -4.940812|   -7.547774|    2.415596|
|         346|  7.3066e+00|  4.1869e-09|  7.7117e-01|  5.0000e-01|  5.0000e-01|  5.0000e-01|   -4.674333|   -4.762172|   -5.317278|   -5.080990|   -4.941200|   -7.547767|    2.415123|
|         347|  7.3057e+00|  4.1866e-09|  7.7117e-01|  5.0000e-01|  5.0000e-01|  5.0000e-01|   -4.674724|   -4.762640|   -5.317338|   -5.081419|   -4.941585|   -7.547763|    2.414649|
|         348|  7.3049e+00|  4.1864e-09|  7.7117e-01|  5.0000e-01|  5.0000e-01|  5.0000e-01|   -4.675112|   -4.763105|   -5.317394|   -5.081846|   -4.941968|   -7.547762|    2.414174|
|         349|  7.3047e+00|  4.1861e-09|  7.7117e-01|  5.0000e-01|  5.0000e-01|  5.0000e-01|   -4.675497|   -4.763568|   -5.317447|   -5.082273|   -4.942350|   -7.547764|    2.413699|
[...]
|        9311|  6.8251e+00|  3.6780e-09|  7.7120e-01|  5.0000e-01|  5.0000e-01|  5.0000e-01|   -4.546708|   -4.631065|   -5.210794|   -4.992111|   -4.834900|   -7.492814|    2.258120|
|        9312|  6.8250e+00|  3.6779e-09|  7.7120e-01|  5.0000e-01|  5.0000e-01|  5.0000e-01|   -4.546036|   -4.630299|   -5.210682|   -4.991372|   -4.834237|   -7.492098|    2.257980|
|        9313|  6.8249e+00|  3.6779e-09|  7.7120e-01|  5.0000e-01|  5.0000e-01|  5.0000e-01|   -4.545366|   -4.629534|   -5.210572|   -4.990633|   -4.833574|   -7.491379|    2.257842|
|        9314|  6.8249e+00|  3.6778e-09|  7.7120e-01|  5.0000e-01|  5.0000e-01|  5.0000e-01|   -4.544696|   -4.628770|   -5.210464|   -4.989895|   -4.832912|   -7.490656|    2.257705|
|        9315|  6.8248e+00|  3.6778e-09|  7.7120e-01|  5.0000e-01|  5.0000e-01|  5.0000e-01|   -4.544028|   -4.628008|   -5.210360|   -4.989157|   -4.832251|   -7.489931|    2.257571|
|        9316|  6.8247e+00|  3.6778e-09|  7.7120e-01|  5.0000e-01|  5.0000e-01|  5.0000e-01|   -4.543362|   -4.627248|   -5.210259|   -4.988421|   -4.831591|   -7.489202|    2.257438|
|        9317|  6.8246e+00|  3.6778e-09|  7.7120e-01|  5.0000e-01|  5.0000e-01|  5.0000e-01|   -4.542697|   -4.626489|   -5.210160|   -4.987686|   -4.830932|   -7.488472|    2.257306|
|        9318|  6.8246e+00|  3.6777e-09|  7.7120e-01|  5.0000e-01|  5.0000e-01|  5.0000e-01|   -4.542034|   -4.625733|   -5.210063|   -4.986952|   -4.830275|   -7.487738|    2.257177|
|        9319|  6.8245e+00|  3.6777e-09|  7.7120e-01|  5.0000e-01|  5.0000e-01|  5.0000e-01|   -4.541374|   -4.624979|   -5.209970|   -4.986220|   -4.829619|   -7.487003|    2.257049|
|        9320|  6.8244e+00|  3.6777e-09|  7.7120e-01|  5.0000e-01|  5.0000e-01|  5.0000e-01|   -4.540715|   -4.624227|   -5.209880|   -4.985489|   -4.828965|   -7.486265|    2.256922|
|        9321|  6.8243e+00|  3.6776e-09|  7.7120e-01|  5.0000e-01|  5.0000e-01|  5.0000e-01|   -4.540060|   -4.623478|   -5.209793|   -4.984761|   -4.828314|   -7.485525|    2.256798|
|        9322|  6.8243e+00|  3.6776e-09|  7.7120e-01|  5.0000e-01|  5.0000e-01|  5.0000e-01|   -4.539407|   -4.622732|   -5.209709|   -4.984037|   -4.827665|   -7.484783|    2.256675|
|        9323|  6.8242e+00|  3.6776e-09|  7.7120e-01|  5.0000e-01|  5.0000e-01|  5.0000e-01|   -4.538757|   -4.621988|   -5.209629|   -4.983314|   -4.827018|   -7.484039|    2.256554|
|        9324|  6.8241e+00|  3.6776e-09|  7.7120e-01|  5.0000e-01|  5.0000e-01|  5.0000e-01|   -4.538108|   -4.621246|   -5.209551|   -4.982592|   -4.826372|   -7.483294|    2.256435|
|        9325|  6.8241e+00|  3.6776e-09|  7.7120e-01|  5.0000e-01|  5.0000e-01|  5.0000e-01|   -4.537462|   -4.620506|   -5.209476|   -4.981872|   -4.825728|   -7.482547|    2.256317|
|        9326|  6.8240e+00|  3.6775e-09|  7.7120e-01|  5.0000e-01|  5.0000e-01|  5.0000e-01|   -4.536818|   -4.619769|   -5.209404|   -4.981155|   -4.825085|   -7.481799|    2.256201|
|        9327|  6.8239e+00|  3.6775e-09|  7.7120e-01|  5.0000e-01|  5.0000e-01|  5.0000e-01|   -4.536177|   -4.619035|   -5.209335|   -4.980440|   -4.824446|   -7.481049|    2.256087|
|        9328|  6.8239e+00|  3.6775e-09|  7.7120e-01|  5.0000e-01|  5.0000e-01|  5.0000e-01|   -4.535538|   -4.618304|   -5.209268|   -4.979726|   -4.823808|   -7.480297|    2.255975|
|        9329|  6.8238e+00|  3.6775e-09|  7.7120e-01|  5.0000e-01|  5.0000e-01|  5.0000e-01|   -4.534901|   -4.617575|   -5.209206|   -4.979015|   -4.823171|   -7.479544|    2.255864|
|        9330|  6.8237e+00|  3.6775e-09|  7.7120e-01|  5.0000e-01|  5.0000e-01|  5.0000e-01|   -4.534268|   -4.616849|   -5.209148|   -4.978306|   -4.822538|   -7.478790|    2.255755|
|        9331|  6.8237e+00|  3.6775e-09|  7.7120e-01|  5.0000e-01|  5.0000e-01|  5.0000e-01|   -4.533638|   -4.616127|   -5.209094|   -4.977600|   -4.821907|   -7.478034|    2.255648|
|        9332|  6.8236e+00|  3.6774e-09|  7.7120e-01|  5.0000e-01|  5.0000e-01|  5.0000e-01|   -4.533010|   -4.615408|   -5.209044|   -4.976897|   -4.821279|   -7.477278|    2.255542|
|        9333|  6.8235e+00|  3.6774e-09|  7.7120e-01|  5.0000e-01|  5.0000e-01|  5.0000e-01|   -4.532386|   -4.614691|   -5.208996|   -4.976196|   -4.820654|   -7.476520|    2.255438|
|        9334|  6.8235e+00|  3.6774e-09|  7.7120e-01|  5.0000e-01|  5.0000e-01|  5.0000e-01|   -4.531764|   -4.613978|   -5.208952|   -4.975498|   -4.820030|   -7.475762|    2.255336|
|        9335|  6.8234e+00|  3.6774e-09|  7.7120e-01|  5.0000e-01|  5.0000e-01|  5.0000e-01|   -4.531146|   -4.613269|   -5.208912|   -4.974804|   -4.819411|   -7.475003|    2.255236|
|        9336|  6.8233e+00|  3.6774e-09|  7.7120e-01|  5.0000e-01|  5.0000e-01|  5.0000e-01|   -4.530531|   -4.612564|   -5.208874|   -4.974113|   -4.818794|   -7.474244|    2.255137|
|        9337|  6.8233e+00|  3.6774e-09|  7.7120e-01|  5.0000e-01|  5.0000e-01|  5.0000e-01|   -4.529920|   -4.611862|   -5.208840|   -4.973425|   -4.818181|   -7.473484|    2.255040|
|        9338|  6.8232e+00|  3.6774e-09|  7.7120e-01|  5.0000e-01|  5.0000e-01|  5.0000e-01|   -4.529311|   -4.611163|   -5.208810|   -4.972739|   -4.817570|   -7.472724|    2.254945|
|        9339|  6.8231e+00|  3.6774e-09|  7.7120e-01|  5.0000e-01|  5.0000e-01|  5.0000e-01|   -4.528706|   -4.610468|   -5.208782|   -4.972055|   -4.816961|   -7.471964|    2.254852|
|        9340|  6.8231e+00|  3.6774e-09|  7.7120e-01|  5.0000e-01|  5.0000e-01|  5.0000e-01|   -4.528103|   -4.609776|   -5.208757|   -4.971373|   -4.816355|   -7.471203|    2.254760|
|        9341|  6.8230e+00|  3.6774e-09|  7.7120e-01|  5.0000e-01|  5.0000e-01|  5.0000e-01|   -4.527504|   -4.609088|   -5.208733|   -4.970693|   -4.815752|   -7.470443|    2.254670|
|        9342|  6.8229e+00|  3.6774e-09|  7.7120e-01|  5.0000e-01|  5.0000e-01|  5.0000e-01|   -4.526906|   -4.608402|   -5.208712|   -4.970015|   -4.815150|   -7.469682|    2.254582|
|        9343|  6.8229e+00|  3.6774e-09|  7.7120e-01|  5.0000e-01|  5.0000e-01|  5.0000e-01|   -4.526312|   -4.607719|   -5.208693|   -4.969339|   -4.814550|   -7.468922|    2.254495|
|        9344|  6.8228e+00|  3.6774e-09|  7.7120e-01|  5.0000e-01|  5.0000e-01|  5.0000e-01|   -4.525716|   -4.607034|   -5.208675|   -4.968661|   -4.813947|   -7.468162|    2.254410|
|        9345|  6.8227e+00|  3.6774e-09|  7.7120e-01|  5.0000e-01|  5.0000e-01|  5.0000e-01|   -4.525125|   -4.606354|   -5.208661|   -4.967987|   -4.813348|   -7.467402|    2.254327|
|        9346|  6.8226e+00|  3.6774e-09|  7.7120e-01|  5.0000e-01|  5.0000e-01|  5.0000e-01|   -4.524538|   -4.605679|   -5.208652|   -4.967316|   -4.812754|   -7.466643|    2.254246|
|        9347|  6.8225e+00|  3.6774e-09|  7.7120e-01|  5.0000e-01|  5.0000e-01|  5.0000e-01|   -4.523954|   -4.605007|   -5.208647|   -4.966649|   -4.812163|   -7.465884|    2.254166|
|        9348|  6.8225e+00|  3.6774e-09|  7.7120e-01|  5.0000e-01|  5.0000e-01|  5.0000e-01|   -4.523375|   -4.604341|   -5.208644|   -4.965985|   -4.811575|   -7.465126|    2.254088|
|        9349|  6.8224e+00|  3.6775e-09|  7.7120e-01|  5.0000e-01|  5.0000e-01|  5.0000e-01|   -4.522800|   -4.603678|   -5.208645|   -4.965324|   -4.810992|   -7.464369|    2.254012|
|        9350|  6.8223e+00|  3.6775e-09|  7.7120e-01|  5.0000e-01|  5.0000e-01|  5.0000e-01|   -4.522229|   -4.603021|   -5.208650|   -4.964667|   -4.810412|   -7.463612|    2.253938|
|        9351|  6.8223e+00|  3.6775e-09|  7.7120e-01|  5.0000e-01|  5.0000e-01|  5.0000e-01|   -4.521664|   -4.602368|   -5.208661|   -4.964016|   -4.809838|   -7.462856|    2.253865|
|        9352|  6.8222e+00|  3.6775e-09|  7.7120e-01|  5.0000e-01|  5.0000e-01|  5.0000e-01|   -4.521104|   -4.601720|   -5.208676|   -4.963370|   -4.809269|   -7.462101|    2.253794|
|        9353|  6.8222e+00|  3.6775e-09|  7.7120e-01|  5.0000e-01|  5.0000e-01|  5.0000e-01|   -4.520548|   -4.601077|   -5.208697|   -4.962729|   -4.808704|   -7.461347|    2.253724|
|        9354|  6.8221e+00|  3.6775e-09|  7.7120e-01|  5.0000e-01|  5.0000e-01|  5.0000e-01|   -4.519997|   -4.600438|   -5.208722|   -4.962091|   -4.808143|   -7.460594|    2.253657|
|        9355|  6.8220e+00|  3.6776e-09|  7.7120e-01|  5.0000e-01|  5.0000e-01|  5.0000e-01|   -4.519450|   -4.599805|   -5.208751|   -4.961458|   -4.807587|   -7.459843|    2.253591|
|        9356|  6.8220e+00|  3.6776e-09|  7.7120e-01|  5.0000e-01|  5.0000e-01|  5.0000e-01|   -4.518909|   -4.599176|   -5.208783|   -4.960830|   -4.807035|   -7.459092|    2.253527|
|        9357|  6.8219e+00|  3.6776e-09|  7.7120e-01|  5.0000e-01|  5.0000e-01|  5.0000e-01|   -4.518371|   -4.598551|   -5.208817|   -4.960204|   -4.806487|   -7.458343|    2.253464|
|        9358|  6.8219e+00|  3.6776e-09|  7.7120e-01|  5.0000e-01|  5.0000e-01|  5.0000e-01|   -4.517837|   -4.597931|   -5.208856|   -4.959583|   -4.805942|   -7.457595|    2.253404|
|        9359|  6.8218e+00|  3.6776e-09|  7.7120e-01|  5.0000e-01|  5.0000e-01|  5.0000e-01|   -4.517308|   -4.597315|   -5.208897|   -4.958966|   -4.805401|   -7.456848|    2.253345|
|        9360|  6.8217e+00|  3.6777e-09|  7.7120e-01|  5.0000e-01|  5.0000e-01|  5.0000e-01|   -4.516782|   -4.596704|   -5.208941|   -4.958352|   -4.804864|   -7.456102|    2.253287|
|        9361|  6.8217e+00|  3.6777e-09|  7.7120e-01|  5.0000e-01|  5.0000e-01|  5.0000e-01|   -4.516261|   -4.596097|   -5.208988|   -4.957741|   -4.804331|   -7.455358|    2.253232|
|        9362|  6.8216e+00|  3.6777e-09|  7.7120e-01|  5.0000e-01|  5.0000e-01|  5.0000e-01|   -4.515745|   -4.595495|   -5.209040|   -4.957136|   -4.803801|   -7.454615|    2.253178|
|        9363|  6.8216e+00|  3.6778e-09|  7.7120e-01|  5.0000e-01|  5.0000e-01|  5.0000e-01|   -4.515233|   -4.594899|   -5.209094|   -4.956535|   -4.803277|   -7.453874|    2.253126|
|        9364|  6.8215e+00|  3.6778e-09|  7.7120e-01|  5.0000e-01|  5.0000e-01|  5.0000e-01|   -4.514725|   -4.594306|   -5.209150|   -4.955937|   -4.802755|   -7.453134|    2.253076|
|        9365|  6.8214e+00|  3.6778e-09|  7.7120e-01|  5.0000e-01|  5.0000e-01|  5.0000e-01|   -4.514223|   -4.593718|   -5.209210|   -4.955344|   -4.802237|   -7.452397|    2.253027|
|        9366|  6.8214e+00|  3.6778e-09|  7.7120e-01|  5.0000e-01|  5.0000e-01|  5.0000e-01|   -4.513724|   -4.593135|   -5.209274|   -4.954756|   -4.801724|   -7.451661|    2.252980|
|        9367|  6.8213e+00|  3.6779e-09|  7.7120e-01|  5.0000e-01|  5.0000e-01|  5.0000e-01|   -4.513226|   -4.592552|   -5.209338|   -4.954168|   -4.801211|   -7.450927|    2.252935|
|        9368|  6.8212e+00|  3.6779e-09|  7.7120e-01|  5.0000e-01|  5.0000e-01|  5.0000e-01|   -4.512731|   -4.591972|   -5.209404|   -4.953581|   -4.800699|   -7.450195|    2.252892|
|        9369|  6.8212e+00|  3.6780e-09|  7.7120e-01|  5.0000e-01|  5.0000e-01|  5.0000e-01|   -4.512241|   -4.591398|   -5.209474|   -4.952998|   -4.800192|   -7.449465|    2.252850|
|        9370|  6.8211e+00|  3.6780e-09|  7.7120e-01|  5.0000e-01|  5.0000e-01|  5.0000e-01|   -4.511756|   -4.590828|   -5.209548|   -4.952420|   -4.799689|   -7.448737|    2.252810|
|        9371|  6.8211e+00|  3.6780e-09|  7.7120e-01|  5.0000e-01|  5.0000e-01|  5.0000e-01|   -4.511276|   -4.590265|   -5.209626|   -4.951847|   -4.799190|   -7.448012|    2.252772|
|        9372|  6.8210e+00|  3.6781e-09|  7.7120e-01|  5.0000e-01|  5.0000e-01|  5.0000e-01|   -4.510801|   -4.589706|   -5.209708|   -4.951279|   -4.798697|   -7.447288|    2.252735|
|        9373|  6.8209e+00|  3.6781e-09|  7.7120e-01|  5.0000e-01|  5.0000e-01|  5.0000e-01|   -4.510331|   -4.589153|   -5.209794|   -4.950716|   -4.798208|   -7.446567|    2.252700|
|        9374|  6.8208e+00|  3.6782e-09|  7.7120e-01|  5.0000e-01|  5.0000e-01|  5.0000e-01|   -4.509867|   -4.588605|   -5.209883|   -4.950158|   -4.797724|   -7.445847|    2.252667|
|        9375|  6.8208e+00|  3.6782e-09|  7.7120e-01|  5.0000e-01|  5.0000e-01|  5.0000e-01|   -4.509400|   -4.588056|   -5.209969|   -4.949597|   -4.797236|   -7.445130|    2.252636|
|        9376|  6.8207e+00|  3.6782e-09|  7.7120e-01|  5.0000e-01|  5.0000e-01|  5.0000e-01|   -4.508934|   -4.587507|   -5.210055|   -4.949035|   -4.796748|   -7.444416|    2.252607|
|        9377|  6.8207e+00|  3.6783e-09|  7.7120e-01|  5.0000e-01|  5.0000e-01|  5.0000e-01|   -4.508473|   -4.586963|   -5.210145|   -4.948478|   -4.796263|   -7.443703|    2.252579|
|        9378|  6.8206e+00|  3.6783e-09|  7.7120e-01|  5.0000e-01|  5.0000e-01|  5.0000e-01|   -4.508016|   -4.586424|   -5.210237|   -4.947926|   -4.795783|   -7.442992|    2.252553|
|        9379|  6.8205e+00|  3.6784e-09|  7.7120e-01|  5.0000e-01|  5.0000e-01|  5.0000e-01|   -4.507564|   -4.585890|   -5.210334|   -4.947379|   -4.795307|   -7.442284|    2.252528|
|        9380|  6.8204e+00|  3.6784e-09|  7.7120e-01|  5.0000e-01|  5.0000e-01|  5.0000e-01|   -4.507117|   -4.585361|   -5.210434|   -4.946838|   -4.794836|   -7.441578|    2.252506|
|        9381|  6.8204e+00|  3.6785e-09|  7.7120e-01|  5.0000e-01|  5.0000e-01|  5.0000e-01|   -4.506674|   -4.584837|   -5.210537|   -4.946299|   -4.794369|   -7.440875|    2.252485|
|        9382|  6.8203e+00|  3.6785e-09|  7.7120e-01|  5.0000e-01|  5.0000e-01|  5.0000e-01|   -4.506235|   -4.584317|   -5.210642|   -4.945764|   -4.793904|   -7.440173|    2.252466|
|        9383|  6.8202e+00|  3.6786e-09|  7.7120e-01|  5.0000e-01|  5.0000e-01|  5.0000e-01|   -4.505800|   -4.583800|   -5.210749|   -4.945233|   -4.793443|   -7.439474|    2.252449|
|        9384|  6.8202e+00|  3.6787e-09|  7.7120e-01|  5.0000e-01|  5.0000e-01|  5.0000e-01|   -4.505371|   -4.583290|   -5.210861|   -4.944709|   -4.792988|   -7.438777|    2.252433|
|        9385|  6.8201e+00|  3.6787e-09|  7.7120e-01|  5.0000e-01|  5.0000e-01|  5.0000e-01|   -4.504947|   -4.582786|   -5.210976|   -4.944190|   -4.792539|   -7.438083|    2.252420|
|        9386|  6.8200e+00|  3.6788e-09|  7.7120e-01|  5.0000e-01|  5.0000e-01|  5.0000e-01|   -4.504528|   -4.582287|   -5.211095|   -4.943675|   -4.792094|   -7.437391|    2.252408|
|        9387|  6.8200e+00|  3.6788e-09|  7.7120e-01|  5.0000e-01|  5.0000e-01|  5.0000e-01|   -4.504115|   -4.581794|   -5.211217|   -4.943165|   -4.791653|   -7.436700|    2.252397|
|        9388|  6.8199e+00|  3.6789e-09|  7.7120e-01|  5.0000e-01|  5.0000e-01|  5.0000e-01|   -4.503706|   -4.581307|   -5.211341|   -4.942660|   -4.791218|   -7.436012|    2.252389|
|        9389|  6.8199e+00|  3.6790e-09|  7.7120e-01|  5.0000e-01|  5.0000e-01|  5.0000e-01|   -4.503303|   -4.580825|   -5.211469|   -4.942160|   -4.790787|   -7.435326|    2.252382|
|        9390|  6.8199e+00|  3.6790e-09|  7.7120e-01|  5.0000e-01|  5.0000e-01|  5.0000e-01|   -4.502905|   -4.580348|   -5.211600|   -4.941664|   -4.790361|   -7.434642|    2.252377|
|        9391|  6.8198e+00|  3.6791e-09|  7.7120e-01|  5.0000e-01|  5.0000e-01|  5.0000e-01|   -4.502512|   -4.579878|   -5.211734|   -4.941175|   -4.789941|   -7.433960|    2.252374|
|        9392|  6.8198e+00|  3.6791e-09|  7.7120e-01|  5.0000e-01|  5.0000e-01|  5.0000e-01|   -4.502126|   -4.579413|   -5.211872|   -4.940691|   -4.789527|   -7.433281|    2.252373|
|        9393|  6.8197e+00|  3.6792e-09|  7.7120e-01|  5.0000e-01|  5.0000e-01|  5.0000e-01|   -4.501745|   -4.578955|   -5.212014|   -4.940213|   -4.789118|   -7.432603|    2.252373|
|        9394|  6.8196e+00|  3.6793e-09|  7.7120e-01|  5.0000e-01|  5.0000e-01|  5.0000e-01|   -4.501370|   -4.578502|   -5.212159|   -4.939739|   -4.788714|   -7.431927|    2.252375|
|        9395|  6.8196e+00|  3.6794e-09|  7.7120e-01|  5.0000e-01|  5.0000e-01|  5.0000e-01|   -4.500999|   -4.578055|   -5.212306|   -4.939270|   -4.788314|   -7.431253|    2.252379|
|        9396|  6.8195e+00|  3.6794e-09|  7.7120e-01|  5.0000e-01|  5.0000e-01|  5.0000e-01|   -4.500634|   -4.577614|   -5.212457|   -4.938805|   -4.787919|   -7.430580|    2.252385|
|        9397|  6.8194e+00|  3.6795e-09|  7.7120e-01|  5.0000e-01|  5.0000e-01|  5.0000e-01|   -4.500273|   -4.577178|   -5.212610|   -4.938344|   -4.787529|   -7.429910|    2.252393|
|        9398|  6.8194e+00|  3.6796e-09|  7.7120e-01|  5.0000e-01|  5.0000e-01|  5.0000e-01|   -4.499917|   -4.576747|   -5.212767|   -4.937888|   -4.787143|   -7.429241|    2.252402|
|        9399|  6.8193e+00|  3.6796e-09|  7.7120e-01|  5.0000e-01|  5.0000e-01|  5.0000e-01|   -4.499567|   -4.576321|   -5.212928|   -4.937436|   -4.786762|   -7.428574|    2.252413|
|        9400|  6.8192e+00|  3.6797e-09|  7.7120e-01|  5.0000e-01|  5.0000e-01|  5.0000e-01|   -4.499222|   -4.575901|   -5.213092|   -4.936990|   -4.786386|   -7.427909|    2.252426|
|        9401|  6.8191e+00|  3.6798e-09|  7.7120e-01|  5.0000e-01|  5.0000e-01|  5.0000e-01|   -4.498881|   -4.575487|   -5.213259|   -4.936548|   -4.786014|   -7.427247|    2.252441|
|        9402|  6.8191e+00|  3.6799e-09|  7.7120e-01|  5.0000e-01|  5.0000e-01|  5.0000e-01|   -4.498544|   -4.575076|   -5.213429|   -4.936110|   -4.785647|   -7.426587|    2.252458|
|        9403|  6.8190e+00|  3.6800e-09|  7.7120e-01|  5.0000e-01|  5.0000e-01|  5.0000e-01|   -4.498213|   -4.574671|   -5.213601|   -4.935677|   -4.785283|   -7.425928|    2.252476|
|        9404|  6.8189e+00|  3.6800e-09|  7.7120e-01|  5.0000e-01|  5.0000e-01|  5.0000e-01|   -4.497884|   -4.574268|   -5.213777|   -4.935248|   -4.784922|   -7.425270|    2.252496|
|        9405|  6.8188e+00|  3.6801e-09|  7.7120e-01|  5.0000e-01|  5.0000e-01|  5.0000e-01|   -4.497559|   -4.573870|   -5.213956|   -4.934824|   -4.784566|   -7.424614|    2.252518|
|        9406|  6.8188e+00|  3.6802e-09|  7.7120e-01|  5.0000e-01|  5.0000e-01|  5.0000e-01|   -4.497239|   -4.573476|   -5.214136|   -4.934404|   -4.784212|   -7.423959|    2.252542|
|        9407|  6.8187e+00|  3.6803e-09|  7.7120e-01|  5.0000e-01|  5.0000e-01|  5.0000e-01|   -4.496923|   -4.573086|   -5.214318|   -4.933988|   -4.783863|   -7.423306|    2.252567|

scontrol show job 1157290
JobId=1157290 JobName=m6_aoa15
   UserId=anthonyy(3152141) GroupId=anthonyy(3152141) MCS_label=N/A
   Priority=545529 Nice=0 Account=rrg-jphickey QOS=normal
   JobState=COMPLETING Reason=TimeLimit Dependency=(null)
   Requeue=0 Restarts=0 BatchFlag=1 Reboot=0 ExitCode=0:15
   RunTime=18:00:20 TimeLimit=18:00:00 TimeMin=N/A
   SubmitTime=2026-03-09T21:09:36 EligibleTime=2026-03-09T21:09:36
   AccrueTime=2026-03-09T21:09:36
   StartTime=2026-03-09T21:10:11 EndTime=2026-03-10T15:10:31 Deadline=N/A
   SuspendTime=None SecsPreSuspend=0 LastSchedEval=2026-03-09T21:10:11 Scheduler=Backfill
   Partition=compute AllocNode:Sid=tri-login06:1483502
   ReqNodeList=(null) ExcNodeList=(null)
   NodeList=tri[1024,1185]
   BatchHost=tri1024
   NumNodes=2 NumCPUs=384 NumTasks=128 CPUs/Task=1 ReqB:S:C:T=0:0:*:*
   ReqTRES=cpu=128,mem=1534000M,node=2,billing=128
   AllocTRES=cpu=384,mem=1534000M,node=2,billing=384
   Socks/Node=* NtasksPerN:B:S:C=64:0:*:* CoreSpec=*
   MinCPUsNode=64 MinMemoryNode=0 MinTmpDiskNode=0
   Features=(null) DelayBoot=00:00:00
   OverSubscribe=NO Contiguous=0 Licenses=(null) Network=(null)
   Command=/scratch/anthonyy/reentry/orion/cases/m6_aoa15/run.sh
   WorkDir=/scratch/anthonyy/reentry/orion/cases/m6_aoa15
   Comment=/opt/slurm/bin/sbatch --export=NONE --get-user-env=L run.sh 
   StdErr=/scratch/anthonyy/reentry/orion/cases/m6_aoa15/orion_1157290.err
   StdIn=/dev/null
   StdOut=/scratch/anthonyy/reentry/orion/cases/m6_aoa15/orion_1157290.out
   TresPerTask=cpu=1
   

sacct -j 1157290
JobID           JobName    Account    Elapsed  MaxVMSize     MaxRSS  SystemCPU    UserCPU ExitCode 
------------ ---------- ---------- ---------- ---------- ---------- ---------- ---------- -------- 
1157290        m6_aoa15 rrg-jphic+   18:00:20                        00:00.130  00:00.601      0:0 
1157290.bat+      batch rrg-jphic+   18:00:21          0     10380K  00:00.130  00:00.601     0:15 
1157290.ext+     extern rrg-jphic+   18:00:20                         00:00:00   00:00:00      0:0 
1157290.0       SU2_CFD rrg-jphic+   18:00:14                         00:00:00   00:00:00      0:0 

