Nodes:  tri[0259,0476]
Tasks:  128
NPN:    64
Config: /scratch/anthonyy/reentry/orion/config/generated/m6_aoa15.cfg

-------------------------------------------------------------------------
|    ___ _   _ ___                                                      |
|   / __| | | |_  )   Release 7.5.1 "Blackbird"                         |
|   \__ \ |_| |/ /                                                      |
|   |___/\___//___|   Suite (Computational Fluid Dynamics Code)         |
|                                                                       |
-------------------------------------------------------------------------
| SU2 Project Website: https://su2code.github.io                        |
|                                                                       |
| The SU2 Project is maintained by the SU2 Foundation                   |
| (http://su2foundation.org)                                            |
-------------------------------------------------------------------------
| Copyright 2012-2023, SU2 Contributors                                 |
|                                                                       |
| SU2 is free software; you can redistribute it and/or                  |
| modify it under the terms of the GNU Lesser General Public            |
| License as published by the Free Software Foundation; either          |
| version 2.1 of the License, or (at your option) any later version.    |
|                                                                       |
| SU2 is distributed in the hope that it will be useful,                |
| but WITHOUT ANY WARRANTY; without even the implied warranty of        |
| MERCHANTABILITY or FITNESS FOR A PARTICULAR PURPOSE. See the GNU      |
| Lesser General Public License for more details.                       |
|                                                                       |
| You should have received a copy of the GNU Lesser General Public      |
| License along with SU2. If not, see <http://www.gnu.org/licenses/>.   |
-------------------------------------------------------------------------

Parsing config file for zone 0

----------------- Physical Case Definition ( Zone 0 ) -------------------
Compressible RANS equations.
Turbulence model: Spalart-Allmaras-noft2
Hybrid RANS/LES: No Hybrid RANS/LES
Mach number: 6.
Angle of attack (AoA): 15 deg, and angle of sideslip (AoS): 0 deg.
Reynolds number: 6.86229e+08. Reference length 5.
Reading and writing binary SU2 native restart files.
Read flow solution from: restart_flow.dat.
Non-Dimensional simulation (V=1.0, Rho=1.0, T=1.0 at the farfield).
The reference area will be computed using y(2D) or z(3D) projection.
The semi-span will be computed using the max y(3D) value.
The reference length is 0.64607 m.
Reference origin for moment evaluation is (0.25, 0, 0).
Surface(s) where the force coefficients are evaluated: ORION_SURFACE.

Input mesh file name: ../../mesh/fine.su2

--------------- Space Numerical Integration ( Zone 0 ) ------------------
Jameson-Schmidt-Turkel scheme (2nd order in space) for the flow inviscid terms.
JST viscous coefficients (2nd & 4th): 0.5, 0.02.
The method includes a grid stretching correction (p = 0.3).
Scalar upwind solver for the turbulence model.
First order integration in space.
Average of gradients with correction (viscous flow terms).
Average of gradients with correction (viscous turbulence terms).
Gradient for upwind reconstruction: Green-Gauss.
Gradient for viscous and source terms: Green-Gauss.

--------------- Time Numerical Integration  ( Zone 0 ) ------------------
Local time stepping (steady state simulation).
Euler implicit method for the flow equations.
FGMRES is used for solving the linear system.
Using a ILU(0) preconditioning.
Convergence criteria of the linear solver: 1e-06.
Max number of linear iterations: 100.
CFL adaptation. Factor down: 0.5, factor up: 1.1,
                lower limit: 0.05, upper limit: 0.5,
                acceptable linear residual: 0.001.
Courant-Friedrichs-Lewy number:     0.03
Euler implicit time integration for the turbulence model.

------------------ Convergence Criteria  ( Zone 0 ) ---------------------
Maximum number of solver subiterations: 999999.
Begin convergence monitoring at iteration 5.
Residual minimum value: 1e-5.
Cauchy series min. value: 1e-10.
Number of Cauchy elements: 100.
Begin windowed time average at iteration 0.

-------------------- Output Information ( Zone 0 ) ----------------------
File writing frequency: 
+------------------------------------+
|                     File| Frequency|
+------------------------------------+
|                  RESTART|       150|
|                 PARAVIEW|       150|
|         SURFACE_PARAVIEW|       150|
+------------------------------------+
Writing the convergence history file every 1 inner iterations.
Writing the screen convergence history every 1 inner iterations.
The tabular file format is CSV (.csv).
Convergence history file name: history.
Forces breakdown file name: forces_breakdown.dat.
Surface file name: surface_flow.
Volume file name: flow.
Restart file name: restart_flow.

------------- Config File Boundary Information ( Zone 0 ) ---------------
+-----------------------------------------------------------------------+
|                        Marker Type|                        Marker Name|
+-----------------------------------------------------------------------+
|                          Far-field|                           FARFIELD|
+-----------------------------------------------------------------------+
|                     Heat flux wall|                      ORION_SURFACE|
+-----------------------------------------------------------------------+

-------------------- Output Preprocessing ( Zone 0 ) --------------------

WARNING: SURFACE_PRESSURE_DROP can only be computed for at least 2 surfaces (outlet, inlet, ...)

Screen output fields: INNER_ITER, WALL_TIME, RMS_DENSITY, RMS_MOMENTUM-X, RMS_MOMENTUM-Y, RMS_MOMENTUM-Z, RMS_ENERGY, RMS_NU_TILDE, DRAG
History output group(s): ITER, RMS_RES
Convergence field(s): RMS_DENSITY
Warning: No (valid) fields chosen for time convergence monitoring. Time convergence monitoring inactive.
Volume output fields: MACH, PRESSURE, TEMPERATURE, DENSITY, HEAT_FLUX, Y_PLUS, COORDINATES, SOLUTION

------------------- Geometry Preprocessing ( Zone 0 ) -------------------
Three dimensional problem.
62211324 grid points before partitioning.
190879888 volume elements before partitioning.
2 surface markers.
4104 boundary elements in index 0 (Marker = FARFIELD).
1824836 boundary elements in index 1 (Marker = ORION_SURFACE).
Executing the partitioning functions.
Building the graph adjacency structure.
Calling ParMETIS... graph partitioning complete (4959327 edge cuts).
Distributing ParMETIS coloring.
Rebalancing vertices.
Rebalancing volume element connectivity.
Rebalancing markers and surface elements.
66952290 vertices including ghost points. 
197997438 interior elements including halo cells. 
103171259 tetrahedra.
94500655 prisms.
325524 pyramids.
Establishing MPI communication patterns.
Setting point connectivity.
Renumbering points (Reverse Cuthill McKee Ordering).
Recomputing point connectivity.
Setting element connectivity.
Checking the numerical grid orientation.
All volume elements are correctly orientend.
All surface elements are correctly orientend.
Identifying edges and vertices.
Setting the control volume structure.
Volume of the computational grid: 535693.
Searching for the closest normal neighbors to the surfaces.
Storing a mapping from global to local point index.
Compute the surface curvature.
Max K: 132.896. Mean K: 3.9104. Standard deviation K: 7.49569.
Checking for periodicity.
Computing mesh quality statistics for the dual control volumes.
+--------------------------------------------------------------+
|           Mesh Quality Metric|        Minimum|        Maximum|
+--------------------------------------------------------------+
|    Orthogonality Angle (deg.)|        53.0661|             90|
|     CV Face Area Aspect Ratio|        1.01143|        75298.5|
|           CV Sub-Volume Ratio|        1.00029|        45.0258|
+--------------------------------------------------------------+
Finding max control volume width.
Communicating number of neighbors.
Reference area = 11.531 m^2.
Semi-span length = 2.49999 m.
Wetted area = 57.9072 m^2.
Area projection in the x-plane = 19.6343 m^2, y-plane = 11.531 m^2, z-plane = 11.531 m^2.
Max. coordinate in the x-direction = 2.575 m, y-direction = 2.49999 m, z-direction = 2.49999 m.
Min. coordinate in the x-direction = -0.71 m, y-direction = -2.49999 m, z-direction = -2.5 m.
Computing wall distances.

-------------------- Solver Preprocessing ( Zone 0 ) --------------------
Viscous flow: Computing pressure using the ideal gas law
based on the free-stream temperature and a density computed
from the Reynolds number.
Force coefficients computed using free-stream values.

-- Models:
+------------------------------------------------------------------------------+
|          Viscosity Model|        Conductivity Model|              Fluid Model|
+------------------------------------------------------------------------------+
|               SUTHERLAND|          CONSTANT_PRANDTL|             STANDARD_AIR|
+------------------------------------------------------------------------------+
-- Fluid properties:
+------------------------------------------------------------------------------+
|                  Name|    Dim. value|    Ref. value|      Unit|Non-dim. value|
+------------------------------------------------------------------------------+
|        Ref. Viscosity|     1.716e-05|       2455.73|   N.s/m^2|   6.98773e-09|
|      Sutherland Temp.|        273.15|        288.15|         K|      0.947944|
|     Sutherland Const.|         110.4|        288.15|         K|      0.383134|
+------------------------------------------------------------------------------+
|        Prandtl (Lam.)|             -|             -|         -|          0.72|
|       Prandtl (Turb.)|             -|             -|         -|           0.9|
+------------------------------------------------------------------------------+
|          Gas Constant|       287.058|       14467.7|  N.m/kg.K|     0.0198413|
|      Spec. Heat Ratio|             -|             -|         -|           1.4|
+------------------------------------------------------------------------------+
-- Initial and free-stream conditions:
+------------------------------------------------------------------------------+
|                  Name|    Dim. value|    Ref. value|      Unit|Non-dim. value|
+------------------------------------------------------------------------------+
|       Static Pressure|       99485.6|   5.01407e+06|        Pa|     0.0198413|
|               Density|       1.20274|       1.20274|    kg/m^3|             1|
|           Temperature|        288.15|        288.15|         K|             1|
|          Total Energy|   2.29123e+06|   4.16887e+06|   m^2/s^2|      0.549603|
|            Velocity-X|       1972.21|       2041.78|       m/s|      0.965926|
|            Velocity-Y|             0|       2041.78|       m/s|             0|
|            Velocity-Z|       528.452|       2041.78|       m/s|      0.258819|
|    Velocity Magnitude|       2041.78|       2041.78|       m/s|             1|
+------------------------------------------------------------------------------+
|             Viscosity|    1.7893e-05|       2455.73|   N.s/m^2|    7.2862e-09|
|          Conductivity|             -|   3.55289e+07|   W/m^2.K|             -|
|     Turb. Kin. Energy|       15633.3|   4.16887e+06|   m^2/s^2|       0.00375|
|     Spec. Dissipation|   1.05085e+08|       2041.78|       1/s|       51467.1|
+------------------------------------------------------------------------------+
|           Mach Number|             -|             -|         -|             6|
|       Reynolds Number|             -|             -|         -|   6.86229e+08|
+------------------------------------------------------------------------------+
Initialize Jacobian structure (Navier-Stokes). MG level: 0.
Initialize Jacobian structure (SA model).

------------------- Numerics Preprocessing ( Zone 0 ) -------------------

----------------- Integration Preprocessing ( Zone 0 ) ------------------

------------------- Iteration Preprocessing ( Zone 0 ) ------------------
Euler/Navier-Stokes/RANS fluid iteration.

------------------------------ Begin Solver -----------------------------

Simulation Run using the Single-zone Driver
WARNING: SU2 was not compiled for an AVX-capable architecture. Performance could be better,
         see https://su2code.github.io/docs_v7/Build-SU2-Linux-MacOS/#compiler-optimizations
+--------------------------------------------------------------------------------------------------------------------+
|  Inner_Iter|   Time(sec)|    rms[Rho]|   rms[RhoU]|   rms[RhoV]|   rms[RhoW]|   rms[RhoE]|     rms[nu]|          CD|
+--------------------------------------------------------------------------------------------------------------------+
|           0|  7.7480e+00|   -4.885770|   -4.980518|   -5.519175|   -5.448649|   -5.160901|   -7.563759|    2.325989|
|           1|  6.5755e+00|   -4.885789|   -4.980514|   -5.519222|   -5.448723|   -5.160947|   -7.563712|    2.325943|
|           2|  6.0968e+00|   -4.885816|   -4.980504|   -5.519294|   -5.448842|   -5.161018|   -7.563705|    2.325892|
|           3|  5.8771e+00|   -4.885846|   -4.980494|   -5.519370|   -5.448970|   -5.161094|   -7.563697|    2.325836|
|           4|  5.7516e+00|   -4.885877|   -4.980481|   -5.519451|   -5.449108|   -5.161175|   -7.563689|    2.325775|
|           5|  5.6623e+00|   -4.885910|   -4.980467|   -5.519535|   -5.449256|   -5.161262|   -7.563680|    2.325707|
|           6|  5.5854e+00|   -4.885944|   -4.980451|   -5.519623|   -5.449416|   -5.161354|   -7.563669|    2.325633|
|           7|  5.5181e+00|   -4.885979|   -4.980432|   -5.519714|   -5.449588|   -5.161450|   -7.563658|    2.325551|
|           8|  5.4664e+00|   -4.886016|   -4.980410|   -5.519808|   -5.449772|   -5.161552|   -7.563645|    2.325461|
|           9|  5.4244e+00|   -4.886053|   -4.980384|   -5.519904|   -5.449967|   -5.161658|   -7.563632|    2.325362|
|          10|  5.3891e+00|   -4.886090|   -4.980355|   -5.520001|   -5.450175|   -5.161768|   -7.563617|    2.325253|
|          11|  5.3613e+00|   -4.886127|   -4.980320|   -5.520097|   -5.450395|   -5.161881|   -7.563600|    2.325133|
|          12|  5.3833e+00|   -4.886163|   -4.980279|   -5.520191|   -5.450627|   -5.161996|   -7.563582|    2.325001|
|          13|  5.4058e+00|   -4.886196|   -4.980232|   -5.520279|   -5.450871|   -5.162112|   -7.563562|    2.324856|
|          14|  5.4216e+00|   -4.886226|   -4.980175|   -5.520359|   -5.451124|   -5.162226|   -7.563540|    2.324697|
|          15|  5.4378e+00|   -4.886250|   -4.980109|   -5.520427|   -5.451387|   -5.162336|   -7.563516|    2.324521|
|          16|  5.4492e+00|   -4.886266|   -4.980030|   -5.520480|   -5.451657|   -5.162439|   -7.563489|    2.324328|
|          17|  5.4585e+00|   -4.886273|   -4.979936|   -5.520512|   -5.451932|   -5.162532|   -7.563460|    2.324115|
|          18|  5.4647e+00|   -4.886268|   -4.979825|   -5.520519|   -5.452210|   -5.162611|   -7.563428|    2.323881|
|          19|  5.4742e+00|   -4.886247|   -4.979692|   -5.520494|   -5.452486|   -5.162669|   -7.563393|    2.323624|
|          20|  5.4874e+00|   -4.886204|   -4.979532|   -5.520429|   -5.452757|   -5.162700|   -7.563355|    2.323341|
|          21|  5.4968e+00|   -4.886134|   -4.979340|   -5.520314|   -5.453016|   -5.162693|   -7.563313|    2.323029|
|          22|  5.5285e+00|   -4.886029|   -4.979107|   -5.520137|   -5.453257|   -5.162640|   -7.563267|    2.322687|
|          23|  5.5555e+00|   -4.885882|   -4.978827|   -5.519888|   -5.453471|   -5.162526|   -7.563216|    2.322310|
|          24|  5.5794e+00|   -4.885681|   -4.978487|   -5.519552|   -5.453648|   -5.162338|   -7.563160|    2.321895|
|          25|  5.6042e+00|   -4.885412|   -4.978074|   -5.519115|   -5.453778|   -5.162056|   -7.563099|    2.321439|
|          26|  5.6277e+00|   -4.885060|   -4.977572|   -5.518560|   -5.453848|   -5.161657|   -7.563134|    2.320976|
|          27|  5.6495e+00|   -4.884680|   -4.977036|   -5.517993|   -5.453909|   -5.161225|   -7.563188|    2.320513|
|          28|  5.6738e+00|   -4.884284|   -4.976479|   -5.517434|   -5.453973|   -5.160778|   -7.563241|    2.320051|
|          29|  5.6948e+00|   -4.883872|   -4.975901|   -5.516884|   -5.454040|   -5.160316|   -7.563293|    2.319589|
|          30|  5.7136e+00|   -4.883445|   -4.975304|   -5.516343|   -5.454112|   -5.159842|   -7.563343|    2.319128|
|          31|  5.7301e+00|   -4.883007|   -4.974695|   -5.515813|   -5.454191|   -5.159359|   -7.563393|    2.318667|
|          32|  5.7481e+00|   -4.882554|   -4.974068|   -5.515291|   -5.454273|   -5.158864|   -7.563441|    2.318206|
|          33|  5.7651e+00|   -4.882086|   -4.973423|   -5.514773|   -5.454357|   -5.158356|   -7.563488|    2.317746|
|          34|  5.7813e+00|   -4.881604|   -4.972762|   -5.514262|   -5.454444|   -5.157837|   -7.563535|    2.317286|
|          35|  5.7967e+00|   -4.881108|   -4.972085|   -5.513758|   -5.454531|   -5.157307|   -7.563580|    2.316827|
|          36|  5.8103e+00|   -4.880599|   -4.971392|   -5.513258|   -5.454619|   -5.156767|   -7.563624|    2.316368|
|          37|  5.8241e+00|   -4.880076|   -4.970684|   -5.512762|   -5.454707|   -5.156216|   -7.563667|    2.315910|
|          38|  5.8346e+00|   -4.879541|   -4.969962|   -5.512268|   -5.454796|   -5.155657|   -7.563709|    2.315452|
|          39|  5.8472e+00|   -4.878994|   -4.969226|   -5.511775|   -5.454883|   -5.155088|   -7.563750|    2.314995|
|          40|  5.8586e+00|   -4.878437|   -4.968478|   -5.511285|   -5.454972|   -5.154512|   -7.563791|    2.314538|
|          41|  5.8703e+00|   -4.877870|   -4.967719|   -5.510798|   -5.455061|   -5.153930|   -7.563830|    2.314082|
|          42|  5.8825e+00|   -4.877294|   -4.966949|   -5.510316|   -5.455151|   -5.153342|   -7.563868|    2.313626|
|          43|  5.8924e+00|   -4.876710|   -4.966169|   -5.509835|   -5.455241|   -5.152750|   -7.563906|    2.313171|
|          44|  5.9049e+00|   -4.876118|   -4.965380|   -5.509356|   -5.455330|   -5.152153|   -7.563943|    2.312717|
|          45|  5.9174e+00|   -4.875518|   -4.964584|   -5.508876|   -5.455417|   -5.151552|   -7.563979|    2.312262|
|          46|  5.9332e+00|   -4.874911|   -4.963779|   -5.508394|   -5.455502|   -5.150946|   -7.564014|    2.311809|
|          47|  5.9448e+00|   -4.874296|   -4.962966|   -5.507910|   -5.455584|   -5.150335|   -7.564049|    2.311356|
|          48|  5.9529e+00|   -4.873674|   -4.962144|   -5.507427|   -5.455666|   -5.149721|   -7.564083|    2.310903|
|          49|  5.9595e+00|   -4.873047|   -4.961317|   -5.506948|   -5.455746|   -5.149106|   -7.564116|    2.310451|
|          50|  5.9674e+00|   -4.872416|   -4.960482|   -5.506472|   -5.455825|   -5.148489|   -7.564148|    2.310000|
|          51|  5.9752e+00|   -4.871779|   -4.959641|   -5.505991|   -5.455900|   -5.147868|   -7.564180|    2.309549|
|          52|  5.9831e+00|   -4.871136|   -4.958794|   -5.505510|   -5.455974|   -5.147243|   -7.564211|    2.309099|
|          53|  5.9919e+00|   -4.870489|   -4.957942|   -5.505029|   -5.456046|   -5.146618|   -7.564242|    2.308649|
|          54|  5.9987e+00|   -4.869836|   -4.957083|   -5.504546|   -5.456115|   -5.145989|   -7.564271|    2.308200|
|          55|  6.0055e+00|   -4.869178|   -4.956219|   -5.504063|   -5.456180|   -5.145357|   -7.564301|    2.307751|
|          56|  6.0137e+00|   -4.868516|   -4.955350|   -5.503580|   -5.456243|   -5.144723|   -7.564329|    2.307303|
|          57|  6.0192e+00|   -4.867852|   -4.954476|   -5.503104|   -5.456304|   -5.144091|   -7.564358|    2.306856|
|          58|  6.0239e+00|   -4.867185|   -4.953599|   -5.502631|   -5.456363|   -5.143458|   -7.564385|    2.306409|
|          59|  6.0293e+00|   -4.866516|   -4.952718|   -5.502159|   -5.456420|   -5.142824|   -7.564412|    2.305963|
|          60|  6.0339e+00|   -4.865843|   -4.951834|   -5.501686|   -5.456474|   -5.142190|   -7.564439|    2.305517|
|          61|  6.0403e+00|   -4.865168|   -4.950945|   -5.501214|   -5.456524|   -5.141555|   -7.564465|    2.305072|
|          62|  6.0447e+00|   -4.864486|   -4.950048|   -5.500740|   -5.456569|   -5.140914|   -7.564491|    2.304628|
|          63|  6.0499e+00|   -4.863800|   -4.949145|   -5.500265|   -5.456609|   -5.140270|   -7.564516|    2.304184|
|          64|  6.0534e+00|   -4.863111|   -4.948238|   -5.499790|   -5.456646|   -5.139625|   -7.564541|    2.303741|
|          65|  6.0588e+00|   -4.862421|   -4.947330|   -5.499322|   -5.456679|   -5.138982|   -7.564566|    2.303299|
|          66|  6.0628e+00|   -4.861728|   -4.946417|   -5.498852|   -5.456708|   -5.138337|   -7.564590|    2.302857|
|          67|  6.0662e+00|   -4.861032|   -4.945500|   -5.498383|   -5.456732|   -5.137689|   -7.564613|    2.302416|
|          68|  6.0696e+00|   -4.860333|   -4.944580|   -5.497915|   -5.456752|   -5.137040|   -7.564637|    2.301976|
|          69|  6.0731e+00|   -4.859631|   -4.943655|   -5.497449|   -5.456768|   -5.136390|   -7.564660|    2.301536|
|          70|  6.0766e+00|   -4.858926|   -4.942727|   -5.496984|   -5.456779|   -5.135738|   -7.564682|    2.301097|
|          71|  6.0800e+00|   -4.858218|   -4.941794|   -5.496517|   -5.456787|   -5.135084|   -7.564705|    2.300659|
|          72|  6.0823e+00|   -4.857507|   -4.940858|   -5.496049|   -5.456791|   -5.134428|   -7.564727|    2.300221|
|          73|  6.0850e+00|   -4.856795|   -4.939920|   -5.495583|   -5.456794|   -5.133772|   -7.564749|    2.299784|
|          74|  6.0883e+00|   -4.856080|   -4.938978|   -5.495117|   -5.456791|   -5.133115|   -7.564771|    2.299348|
|          75|  6.0920e+00|   -4.855363|   -4.938032|   -5.494650|   -5.456782|   -5.132456|   -7.564792|    2.298913|
|          76|  6.0961e+00|   -4.854642|   -4.937083|   -5.494183|   -5.456768|   -5.131794|   -7.564813|    2.298478|
|          77|  6.0994e+00|   -4.853919|   -4.936131|   -5.493713|   -5.456750|   -5.131129|   -7.564834|    2.298043|
|          78|  6.1014e+00|   -4.853190|   -4.935173|   -5.493239|   -5.456725|   -5.130460|   -7.564855|    2.297610|
|          79|  6.1038e+00|   -4.852456|   -4.934211|   -5.492763|   -5.456694|   -5.129786|   -7.564875|    2.297177|
|          80|  6.1063e+00|   -4.851719|   -4.933245|   -5.492285|   -5.456657|   -5.129108|   -7.564896|    2.296745|
|          81|  6.1103e+00|   -4.850979|   -4.932278|   -5.491805|   -5.456615|   -5.128428|   -7.564916|    2.296314|
|          82|  6.1131e+00|   -4.850235|   -4.931306|   -5.491324|   -5.456567|   -5.127745|   -7.564936|    2.295883|
|          83|  6.1155e+00|   -4.849489|   -4.930332|   -5.490843|   -5.456516|   -5.127060|   -7.564956|    2.295453|
|          84|  6.1169e+00|   -4.848739|   -4.929354|   -5.490361|   -5.456458|   -5.126371|   -7.564976|    2.295023|
|          85|  6.1178e+00|   -4.847986|   -4.928374|   -5.489879|   -5.456395|   -5.125680|   -7.564995|    2.294595|
|          86|  6.1209e+00|   -4.847229|   -4.927391|   -5.489395|   -5.456326|   -5.124985|   -7.565015|    2.294167|
|          87|  6.1221e+00|   -4.846468|   -4.926405|   -5.488910|   -5.456251|   -5.124286|   -7.565035|    2.293739|
|          88|  6.1238e+00|   -4.845704|   -4.925415|   -5.488425|   -5.456171|   -5.123584|   -7.565054|    2.293313|
|          89|  6.1244e+00|   -4.844936|   -4.924424|   -5.487940|   -5.456085|   -5.122879|   -7.565074|    2.292887|
|          90|  6.1252e+00|   -4.844165|   -4.923429|   -5.487455|   -5.455993|   -5.122170|   -7.565093|    2.292462|
|          91|  6.1259e+00|   -4.843390|   -4.922431|   -5.486969|   -5.455895|   -5.121458|   -7.565112|    2.292038|
|          92|  6.1271e+00|   -4.842612|   -4.921430|   -5.486484|   -5.455791|   -5.120743|   -7.565132|    2.291614|
|          93|  6.1288e+00|   -4.841832|   -4.920428|   -5.485998|   -5.455684|   -5.120026|   -7.565151|    2.291191|
|          94|  6.1301e+00|   -4.841049|   -4.919423|   -5.485510|   -5.455570|   -5.119305|   -7.565169|    2.290769|
|          95|  6.1318e+00|   -4.840263|   -4.918416|   -5.485018|   -5.455451|   -5.118581|   -7.565188|    2.290347|
|          96|  6.1326e+00|   -4.839474|   -4.917407|   -5.484526|   -5.455327|   -5.117853|   -7.565207|    2.289926|
|          97|  6.1332e+00|   -4.838684|   -4.916397|   -5.484035|   -5.455197|   -5.117125|   -7.565226|    2.289506|
|          98|  6.1339e+00|   -4.837890|   -4.915386|   -5.483542|   -5.455061|   -5.116393|   -7.565246|    2.289087|
|          99|  6.1358e+00|   -4.837095|   -4.914372|   -5.483048|   -5.454919|   -5.115658|   -7.565265|    2.288668|
|         100|  6.1370e+00|   -4.836295|   -4.913356|   -5.482555|   -5.454772|   -5.114919|   -7.565284|    2.288250|
|         101|  6.1399e+00|   -4.835495|   -4.912339|   -5.482062|   -5.454618|   -5.114178|   -7.565304|    2.287833|
|         102|  6.1418e+00|   -4.834693|   -4.911321|   -5.481571|   -5.454460|   -5.113436|   -7.565323|    2.287416|
|         103|  6.1450e+00|   -4.833888|   -4.910301|   -5.481078|   -5.454297|   -5.112690|   -7.565343|    2.287001|
|         104|  6.1469e+00|   -4.833081|   -4.909279|   -5.480584|   -5.454128|   -5.111940|   -7.565362|    2.286586|
|         105|  6.1488e+00|   -4.832271|   -4.908257|   -5.480090|   -5.453955|   -5.111188|   -7.565382|    2.286171|
|         106|  6.1495e+00|   -4.831460|   -4.907232|   -5.479597|   -5.453778|   -5.110434|   -7.565401|    2.285758|
|         107|  6.1507e+00|   -4.830647|   -4.906207|   -5.479105|   -5.453596|   -5.109676|   -7.565421|    2.285345|
|         108|  6.1526e+00|   -4.829830|   -4.905179|   -5.478609|   -5.453409|   -5.108914|   -7.565440|    2.284933|
|         109|  6.1551e+00|   -4.829012|   -4.904150|   -5.478112|   -5.453219|   -5.108150|   -7.565460|    2.284522|
|         110|  6.1574e+00|   -4.828191|   -4.903120|   -5.477616|   -5.453025|   -5.107383|   -7.565480|    2.284112|
|         111|  6.1587e+00|   -4.827369|   -4.902090|   -5.477120|   -5.452826|   -5.106614|   -7.565499|    2.283702|
|         112|  6.1589e+00|   -4.826546|   -4.901058|   -5.476623|   -5.452623|   -5.105843|   -7.565519|    2.283293|
|         113|  6.1598e+00|   -4.825720|   -4.900025|   -5.476125|   -5.452416|   -5.105068|   -7.565539|    2.282885|
|         114|  6.1616e+00|   -4.824893|   -4.898991|   -5.475628|   -5.452206|   -5.104292|   -7.565559|    2.282478|
|         115|  6.1630e+00|   -4.824064|   -4.897956|   -5.475131|   -5.451990|   -5.103513|   -7.565580|    2.282071|
|         116|  6.1643e+00|   -4.823234|   -4.896921|   -5.474633|   -5.451772|   -5.102732|   -7.565600|    2.281666|
|         117|  6.1669e+00|   -4.822405|   -4.895887|   -5.474137|   -5.451553|   -5.101952|   -7.565621|    2.281261|
|         118|  6.1683e+00|   -4.821575|   -4.894853|   -5.473639|   -5.451330|   -5.101169|   -7.565641|    2.280857|
|         119|  6.1694e+00|   -4.820743|   -4.893817|   -5.473142|   -5.451105|   -5.100385|   -7.565661|    2.280454|
|         120|  6.1710e+00|   -4.819911|   -4.892782|   -5.472646|   -5.450877|   -5.099599|   -7.565681|    2.280052|
|         121|  6.1746e+00|   -4.819079|   -4.891748|   -5.472155|   -5.450648|   -5.098814|   -7.565702|    2.279650|
|         122|  6.1771e+00|   -4.818247|   -4.890714|   -5.471662|   -5.450417|   -5.098028|   -7.565723|    2.279249|
|         123|  6.1788e+00|   -4.817416|   -4.889682|   -5.471171|   -5.450184|   -5.097241|   -7.565743|    2.278850|
|         124|  6.1795e+00|   -4.816585|   -4.888650|   -5.470679|   -5.449949|   -5.096454|   -7.565764|    2.278451|
|         125|  6.1796e+00|   -4.815755|   -4.887620|   -5.470190|   -5.449713|   -5.095667|   -7.565785|    2.278053|
|         126|  6.1807e+00|   -4.814925|   -4.886590|   -5.469703|   -5.449475|   -5.094881|   -7.565805|    2.277656|
|         127|  6.1819e+00|   -4.814098|   -4.885562|   -5.469218|   -5.449237|   -5.094095|   -7.565826|    2.277260|
|         128|  6.1832e+00|   -4.813271|   -4.884536|   -5.468736|   -5.448996|   -5.093309|   -7.565847|    2.276864|
|         129|  6.1843e+00|   -4.812445|   -4.883511|   -5.468253|   -5.448755|   -5.092523|   -7.565867|    2.276470|
|         130|  6.1850e+00|   -4.811621|   -4.882487|   -5.467770|   -5.448511|   -5.091737|   -7.565888|    2.276077|
|         131|  6.1860e+00|   -4.810797|   -4.881466|   -5.467288|   -5.448264|   -5.090951|   -7.565909|    2.275684|
|         132|  6.1866e+00|   -4.809975|   -4.880447|   -5.466809|   -5.448017|   -5.090166|   -7.565930|    2.275293|
|         133|  6.1878e+00|   -4.809154|   -4.879429|   -5.466332|   -5.447769|   -5.089381|   -7.565950|    2.274902|
|         134|  6.1890e+00|   -4.808334|   -4.878413|   -5.465856|   -5.447519|   -5.088596|   -7.565971|    2.274513|
|         135|  6.1906e+00|   -4.807515|   -4.877399|   -5.465382|   -5.447268|   -5.087811|   -7.565991|    2.274124|
|         136|  6.1919e+00|   -4.806698|   -4.876387|   -5.464910|   -5.447014|   -5.087026|   -7.566011|    2.273736|
|         137|  6.1933e+00|   -4.805882|   -4.875377|   -5.464439|   -5.446758|   -5.086242|   -7.566032|    2.273350|
|         138|  6.1938e+00|   -4.805066|   -4.874369|   -5.463967|   -5.446501|   -5.085457|   -7.566053|    2.272964|
|         139|  6.1949e+00|   -4.804253|   -4.873364|   -5.463500|   -5.446244|   -5.084674|   -7.566073|    2.272580|
|         140|  6.1954e+00|   -4.803442|   -4.872361|   -5.463035|   -5.445987|   -5.083892|   -7.566094|    2.272196|
|         141|  6.1964e+00|   -4.802633|   -4.871360|   -5.462574|   -5.445728|   -5.083111|   -7.566115|    2.271813|
|         142|  6.1970e+00|   -4.801825|   -4.870362|   -5.462114|   -5.445469|   -5.082331|   -7.566135|    2.271432|
|         143|  6.1978e+00|   -4.801020|   -4.869367|   -5.461654|   -5.445211|   -5.081552|   -7.566156|    2.271051|
|         144|  6.1980e+00|   -4.800216|   -4.868375|   -5.461195|   -5.444952|   -5.080773|   -7.566177|    2.270672|
|         145|  6.1985e+00|   -4.799415|   -4.867386|   -5.460738|   -5.444693|   -5.079997|   -7.566197|    2.270294|
|         146|  6.1994e+00|   -4.798616|   -4.866401|   -5.460283|   -5.444434|   -5.079223|   -7.566217|    2.269916|
|         147|  6.2001e+00|   -4.797819|   -4.865418|   -5.459827|   -5.444173|   -5.078448|   -7.566238|    2.269540|
|         148|  6.2009e+00|   -4.797025|   -4.864439|   -5.459371|   -5.443914|   -5.077676|   -7.566258|    2.269165|
|         149|  6.2015e+00|   -4.796234|   -4.863464|   -5.458916|   -5.443654|   -5.076906|   -7.566278|    2.268791|
|         150|  6.2015e+00|   -4.795446|   -4.862493|   -5.458461|   -5.443394|   -5.076138|   -7.566298|    2.268418|
+-----------------------------------------------------------------------+
|        File Writing Summary       |              Filename             |
+-----------------------------------------------------------------------+
|SU2 binary restart                 |restart_flow.dat                   |
|Paraview                           |flow.vtu                           |
|Paraview surface                   |surface_flow.vtu                   |
+-----------------------------------------------------------------------+
+--------------------------------------------------------------------------------------------------------------------+
|  Inner_Iter|   Time(sec)|    rms[Rho]|   rms[RhoU]|   rms[RhoV]|   rms[RhoW]|   rms[RhoE]|     rms[nu]|          CD|
+--------------------------------------------------------------------------------------------------------------------+
|         151|  6.3703e+00|   -4.794660|   -4.861525|   -5.458008|   -5.443133|   -5.075371|   -7.566317|    2.268046|
|         152|  6.3713e+00|   -4.793876|   -4.860561|   -5.457556|   -5.442873|   -5.074606|   -7.566337|    2.267675|
|         153|  6.3727e+00|   -4.793095|   -4.859600|   -5.457106|   -5.442612|   -5.073842|   -7.566357|    2.267306|
|         154|  6.3740e+00|   -4.792317|   -4.858643|   -5.456658|   -5.442351|   -5.073080|   -7.566376|    2.266937|
|         155|  6.3749e+00|   -4.791542|   -4.857689|   -5.456213|   -5.442088|   -5.072320|   -7.566396|    2.266570|
|         156|  6.3752e+00|   -4.790769|   -4.856739|   -5.455767|   -5.441824|   -5.071562|   -7.566415|    2.266203|
|         157|  6.3756e+00|   -4.789999|   -4.855793|   -5.455321|   -5.441558|   -5.070805|   -7.566434|    2.265838|
|         158|  6.3752e+00|   -4.789232|   -4.854851|   -5.454876|   -5.441293|   -5.070050|   -7.566453|    2.265474|
|         159|  6.3756e+00|   -4.788468|   -4.853913|   -5.454431|   -5.441027|   -5.069297|   -7.566472|    2.265111|
|         160|  6.3753e+00|   -4.787707|   -4.852980|   -5.453987|   -5.440760|   -5.068547|   -7.566491|    2.264750|
|         161|  6.3750e+00|   -4.786950|   -4.852051|   -5.453542|   -5.440493|   -5.067800|   -7.566509|    2.264389|
|         162|  6.3752e+00|   -4.786196|   -4.851127|   -5.453099|   -5.440226|   -5.067056|   -7.566528|    2.264029|
|         163|  6.3748e+00|   -4.785447|   -4.850208|   -5.452657|   -5.439958|   -5.066315|   -7.566546|    2.263671|
|         164|  6.3737e+00|   -4.784701|   -4.849294|   -5.452215|   -5.439688|   -5.065577|   -7.566564|    2.263314|
|         165|  6.3731e+00|   -4.783959|   -4.848384|   -5.451773|   -5.439417|   -5.064841|   -7.566581|    2.262958|
|         166|  6.3722e+00|   -4.783220|   -4.847479|   -5.451334|   -5.439145|   -5.064108|   -7.566599|    2.262603|
|         167|  6.3719e+00|   -4.782485|   -4.846578|   -5.450897|   -5.438872|   -5.063378|   -7.566616|    2.262249|
|         168|  6.3725e+00|   -4.781754|   -4.845682|   -5.450464|   -5.438599|   -5.062651|   -7.566633|    2.261897|
|         169|  6.3723e+00|   -4.781026|   -4.844790|   -5.450034|   -5.438325|   -5.061928|   -7.566649|    2.261545|
|         170|  6.3715e+00|   -4.780302|   -4.843902|   -5.449605|   -5.438051|   -5.061206|   -7.566665|    2.261195|
|         171|  6.3720e+00|   -4.779578|   -4.843013|   -5.449179|   -5.437777|   -5.060482|   -7.566681|    2.260846|
|         172|  6.3711e+00|   -4.778857|   -4.842129|   -5.448755|   -5.437502|   -5.059762|   -7.566697|    2.260498|
|         173|  6.3712e+00|   -4.778141|   -4.841250|   -5.448333|   -5.437226|   -5.059044|   -7.566712|    2.260151|
|         174|  6.3711e+00|   -4.777427|   -4.840375|   -5.447911|   -5.436949|   -5.058328|   -7.566727|    2.259805|
|         175|  6.3705e+00|   -4.776718|   -4.839505|   -5.447490|   -5.436671|   -5.057616|   -7.566742|    2.259461|
|         176|  6.3699e+00|   -4.776012|   -4.838640|   -5.447070|   -5.436392|   -5.056907|   -7.566756|    2.259117|
|         177|  6.3696e+00|   -4.775311|   -4.837781|   -5.446650|   -5.436113|   -5.056201|   -7.566770|    2.258775|
|         178|  6.3692e+00|   -4.774615|   -4.836928|   -5.446231|   -5.435834|   -5.055499|   -7.566784|    2.258434|
|         179|  6.3685e+00|   -4.773922|   -4.836080|   -5.445812|   -5.435555|   -5.054801|   -7.566797|    2.258094|
|         180|  6.3677e+00|   -4.773234|   -4.835237|   -5.445392|   -5.435275|   -5.054105|   -7.566810|    2.257755|
|         181|  6.3675e+00|   -4.772550|   -4.834398|   -5.444974|   -5.434995|   -5.053413|   -7.566823|    2.257418|
|         182|  6.3671e+00|   -4.771869|   -4.833565|   -5.444562|   -5.434714|   -5.052724|   -7.566835|    2.257081|
|         183|  6.3670e+00|   -4.771193|   -4.832737|   -5.444150|   -5.434433|   -5.052039|   -7.566847|    2.256746|
|         184|  6.3666e+00|   -4.770522|   -4.831915|   -5.443742|   -5.434153|   -5.051358|   -7.566858|    2.256412|
|         185|  6.3660e+00|   -4.769856|   -4.831098|   -5.443335|   -5.433873|   -5.050681|   -7.566869|    2.256078|
|         186|  6.3655e+00|   -4.769193|   -4.830285|   -5.442929|   -5.433593|   -5.050007|   -7.566880|    2.255747|
|         187|  6.3652e+00|   -4.768533|   -4.829477|   -5.442524|   -5.433314|   -5.049335|   -7.566890|    2.255416|
|         188|  6.3650e+00|   -4.767877|   -4.828673|   -5.442120|   -5.433034|   -5.048665|   -7.566900|    2.255086|
|         189|  6.3647e+00|   -4.767224|   -4.827874|   -5.441713|   -5.432755|   -5.047999|   -7.566910|    2.254758|
|         190|  6.3642e+00|   -4.766573|   -4.827078|   -5.441307|   -5.432475|   -5.047333|   -7.566919|    2.254430|
|         191|  6.3632e+00|   -4.765926|   -4.826287|   -5.440903|   -5.432196|   -5.046672|   -7.566928|    2.254104|
|         192|  6.3629e+00|   -4.765284|   -4.825502|   -5.440498|   -5.431919|   -5.046014|   -7.566937|    2.253779|
|         193|  6.3628e+00|   -4.764646|   -4.824722|   -5.440095|   -5.431641|   -5.045360|   -7.566945|    2.253455|
|         194|  6.3623e+00|   -4.764012|   -4.823948|   -5.439696|   -5.431365|   -5.044710|   -7.566952|    2.253132|
|         195|  6.3618e+00|   -4.763382|   -4.823179|   -5.439297|   -5.431088|   -5.044062|   -7.566960|    2.252810|
|         196|  6.3608e+00|   -4.762757|   -4.822414|   -5.438902|   -5.430813|   -5.043419|   -7.566967|    2.252490|
|         197|  6.3604e+00|   -4.762135|   -4.821655|   -5.438508|   -5.430538|   -5.042779|   -7.566973|    2.252170|
|         198|  6.3601e+00|   -4.761517|   -4.820901|   -5.438118|   -5.430263|   -5.042143|   -7.566980|    2.251852|
|         199|  6.3593e+00|   -4.760904|   -4.820151|   -5.437731|   -5.429990|   -5.041510|   -7.566986|    2.251535|
|         200|  6.3585e+00|   -4.760294|   -4.819405|   -5.437348|   -5.429717|   -5.040880|   -7.566991|    2.251219|
|         201|  6.3578e+00|   -4.759687|   -4.818664|   -5.436967|   -5.429445|   -5.040253|   -7.566996|    2.250904|
|         202|  6.3572e+00|   -4.759085|   -4.817928|   -5.436586|   -5.429174|   -5.039630|   -7.567001|    2.250590|
|         203|  6.3566e+00|   -4.758487|   -4.817197|   -5.436207|   -5.428904|   -5.039010|   -7.567006|    2.250277|
|         204|  6.3559e+00|   -4.757892|   -4.816471|   -5.435829|   -5.428634|   -5.038393|   -7.567010|    2.249965|
|         205|  6.3555e+00|   -4.757301|   -4.815749|   -5.435453|   -5.428366|   -5.037779|   -7.567014|    2.249654|
|         206|  6.3549e+00|   -4.756710|   -4.815028|   -5.435076|   -5.428098|   -5.037165|   -7.567017|    2.249345|
|         207|  6.3541e+00|   -4.756123|   -4.814312|   -5.434700|   -5.427830|   -5.036554|   -7.567021|    2.249037|
|         208|  6.3533e+00|   -4.755540|   -4.813601|   -5.434325|   -5.427563|   -5.035946|   -7.567024|    2.248729|
|         209|  6.3527e+00|   -4.754960|   -4.812896|   -5.433952|   -5.427296|   -5.035342|   -7.567026|    2.248423|
|         210|  6.3522e+00|   -4.754385|   -4.812195|   -5.433581|   -5.427030|   -5.034742|   -7.567029|    2.248118|
|         211|  6.3517e+00|   -4.753814|   -4.811501|   -5.433211|   -5.426766|   -5.034145|   -7.567031|    2.247814|
|         212|  6.3516e+00|   -4.753249|   -4.810812|   -5.432846|   -5.426504|   -5.033554|   -7.567033|    2.247511|
|         213|  6.3514e+00|   -4.752687|   -4.810129|   -5.432482|   -5.426243|   -5.032967|   -7.567035|    2.247209|
|         214|  6.3509e+00|   -4.752131|   -4.809451|   -5.432123|   -5.425984|   -5.032385|   -7.567037|    2.246908|
|         215|  6.3503e+00|   -4.751579|   -4.808778|   -5.431765|   -5.425726|   -5.031807|   -7.567038|    2.246609|
|         216|  6.3500e+00|   -4.751031|   -4.808111|   -5.431411|   -5.425470|   -5.031234|   -7.567040|    2.246310|
|         217|  6.3497e+00|   -4.750489|   -4.807450|   -5.431060|   -5.425213|   -5.030666|   -7.567041|    2.246013|
|         218|  6.3494e+00|   -4.749952|   -4.806796|   -5.430711|   -5.424958|   -5.030102|   -7.567042|    2.245716|
|         219|  6.3491e+00|   -4.749420|   -4.806147|   -5.430366|   -5.424704|   -5.029544|   -7.567042|    2.245421|
|         220|  6.3491e+00|   -4.748893|   -4.805505|   -5.430024|   -5.424452|   -5.028991|   -7.567043|    2.245127|
|         221|  6.3486e+00|   -4.748372|   -4.804869|   -5.429686|   -5.424200|   -5.028443|   -7.567043|    2.244833|
|         222|  6.3482e+00|   -4.747855|   -4.804237|   -5.429352|   -5.423950|   -5.027899|   -7.567043|    2.244541|
|         223|  6.3479e+00|   -4.747342|   -4.803610|   -5.429021|   -5.423700|   -5.027359|   -7.567043|    2.244250|
|         224|  6.3479e+00|   -4.746833|   -4.802989|   -5.428691|   -5.423450|   -5.026824|   -7.567042|    2.243960|
|         225|  6.3481e+00|   -4.746330|   -4.802374|   -5.428364|   -5.423200|   -5.026293|   -7.567042|    2.243671|
|         226|  6.3484e+00|   -4.745830|   -4.801765|   -5.428040|   -5.422951|   -5.025766|   -7.567041|    2.243383|
|         227|  6.3479e+00|   -4.745336|   -4.801161|   -5.427719|   -5.422702|   -5.025244|   -7.567040|    2.243096|
|         228|  6.3482e+00|   -4.744847|   -4.800562|   -5.427400|   -5.422455|   -5.024727|   -7.567040|    2.242810|
|         229|  6.3482e+00|   -4.744363|   -4.799970|   -5.427085|   -5.422209|   -5.024214|   -7.567038|    2.242525|
|         230|  6.3478e+00|   -4.743883|   -4.799383|   -5.426771|   -5.421965|   -5.023706|   -7.567037|    2.242241|
|         231|  6.3477e+00|   -4.743408|   -4.798801|   -5.426460|   -5.421722|   -5.023202|   -7.567036|    2.241959|
|         232|  6.3480e+00|   -4.742938|   -4.798225|   -5.426152|   -5.421480|   -5.022703|   -7.567035|    2.241677|
|         233|  6.3485e+00|   -4.742470|   -4.797653|   -5.425846|   -5.421239|   -5.022206|   -7.567034|    2.241396|
|         234|  6.3483e+00|   -4.742008|   -4.797086|   -5.425541|   -5.421000|   -5.021714|   -7.567032|    2.241116|
|         235|  6.3481e+00|   -4.741550|   -4.796525|   -5.425238|   -5.420763|   -5.021227|   -7.567031|    2.240838|
|         236|  6.3478e+00|   -4.741097|   -4.795970|   -5.424937|   -5.420527|   -5.020745|   -7.567030|    2.240560|
|         237|  6.3482e+00|   -4.740649|   -4.795419|   -5.424638|   -5.420292|   -5.020266|   -7.567028|    2.240284|
|         238|  6.3478e+00|   -4.740205|   -4.794874|   -5.424340|   -5.420058|   -5.019791|   -7.567027|    2.240008|
|         239|  6.3474e+00|   -4.739765|   -4.794334|   -5.424044|   -5.419826|   -5.019321|   -7.567025|    2.239733|
|         240|  6.3472e+00|   -4.739329|   -4.793799|   -5.423749|   -5.419595|   -5.018855|   -7.567024|    2.239460|
|         241|  6.3472e+00|   -4.738897|   -4.793269|   -5.423456|   -5.419365|   -5.018392|   -7.567023|    2.239187|
|         242|  6.3470e+00|   -4.738469|   -4.792743|   -5.423166|   -5.419137|   -5.017934|   -7.567022|    2.238915|
|         243|  6.3467e+00|   -4.738045|   -4.792222|   -5.422879|   -5.418909|   -5.017478|   -7.567021|    2.238645|
|         244|  6.3463e+00|   -4.737624|   -4.791705|   -5.422593|   -5.418682|   -5.017026|   -7.567019|    2.238375|
|         245|  6.3465e+00|   -4.737207|   -4.791193|   -5.422310|   -5.418456|   -5.016577|   -7.567017|    2.238107|
|         246|  6.3465e+00|   -4.736795|   -4.790685|   -5.422029|   -5.418232|   -5.016133|   -7.567014|    2.237839|
|         247|  6.3464e+00|   -4.736386|   -4.790182|   -5.421752|   -5.418010|   -5.015693|   -7.567012|    2.237572|
|         248|  6.3465e+00|   -4.735982|   -4.789684|   -5.421476|   -5.417789|   -5.015257|   -7.567010|    2.237307|
|         249|  6.3464e+00|   -4.735581|   -4.789191|   -5.421203|   -5.417568|   -5.014825|   -7.567008|    2.237042|
|         250|  6.3459e+00|   -4.735185|   -4.788703|   -5.420933|   -5.417347|   -5.014396|   -7.567007|    2.236778|
|         251|  6.3460e+00|   -4.734792|   -4.788219|   -5.420666|   -5.417128|   -5.013972|   -7.567005|    2.236516|
|         252|  6.3459e+00|   -4.734403|   -4.787739|   -5.420401|   -5.416909|   -5.013551|   -7.567004|    2.236254|
|         253|  6.3458e+00|   -4.734017|   -4.787264|   -5.420137|   -5.416690|   -5.013134|   -7.567003|    2.235993|
|         254|  6.3455e+00|   -4.733635|   -4.786794|   -5.419876|   -5.416473|   -5.012720|   -7.567002|    2.235733|
|         255|  6.3454e+00|   -4.733256|   -4.786327|   -5.419616|   -5.416256|   -5.012308|   -7.567001|    2.235475|
|         256|  6.3453e+00|   -4.732880|   -4.785864|   -5.419359|   -5.416041|   -5.011901|   -7.567001|    2.235217|
|         257|  6.3448e+00|   -4.732508|   -4.785406|   -5.419105|   -5.415826|   -5.011497|   -7.567001|    2.234960|
|         258|  6.3445e+00|   -4.732138|   -4.784951|   -5.418851|   -5.415611|   -5.011095|   -7.567001|    2.234704|
|         259|  6.3445e+00|   -4.731770|   -4.784498|   -5.418599|   -5.415398|   -5.010696|   -7.567001|    2.234449|
|         260|  6.3444e+00|   -4.731405|   -4.784049|   -5.418349|   -5.415186|   -5.010299|   -7.567002|    2.234195|
|         261|  6.3444e+00|   -4.731044|   -4.783604|   -5.418105|   -5.414974|   -5.009906|   -7.567003|    2.233942|
|         262|  6.3444e+00|   -4.730685|   -4.783162|   -5.417862|   -5.414763|   -5.009516|   -7.567005|    2.233690|
|         263|  6.3441e+00|   -4.730330|   -4.782725|   -5.417622|   -5.414552|   -5.009130|   -7.567007|    2.233439|
|         264|  6.3440e+00|   -4.729979|   -4.782292|   -5.417387|   -5.414342|   -5.008747|   -7.567009|    2.233189|
|         265|  6.3436e+00|   -4.729631|   -4.781863|   -5.417154|   -5.414133|   -5.008368|   -7.567012|    2.232940|
|         266|  6.3430e+00|   -4.729287|   -4.781438|   -5.416923|   -5.413924|   -5.007992|   -7.567016|    2.232692|
|         267|  6.3426e+00|   -4.728945|   -4.781017|   -5.416693|   -5.413715|   -5.007620|   -7.567020|    2.232445|
|         268|  6.3423e+00|   -4.728606|   -4.780599|   -5.416464|   -5.413506|   -5.007250|   -7.567024|    2.232198|
|         269|  6.3421e+00|   -4.728271|   -4.780186|   -5.416237|   -5.413297|   -5.006884|   -7.567030|    2.231953|
|         270|  6.3417e+00|   -4.727937|   -4.779775|   -5.416014|   -5.413088|   -5.006520|   -7.567036|    2.231709|
|         271|  6.3413e+00|   -4.727606|   -4.779367|   -5.415793|   -5.412880|   -5.006158|   -7.567042|    2.231466|
|         272|  6.3408e+00|   -4.727278|   -4.778962|   -5.415574|   -5.412671|   -5.005799|   -7.567049|    2.231224|
|         273|  6.3404e+00|   -4.726951|   -4.778560|   -5.415358|   -5.412462|   -5.005441|   -7.567056|    2.230982|
|         274|  6.3401e+00|   -4.726626|   -4.778160|   -5.415145|   -5.412252|   -5.005086|   -7.567064|    2.230742|
|         275|  6.3398e+00|   -4.726303|   -4.777763|   -5.414935|   -5.412042|   -5.004733|   -7.567073|    2.230503|
|         276|  6.3395e+00|   -4.725984|   -4.777370|   -5.414725|   -5.411832|   -5.004382|   -7.567082|    2.230264|
|         277|  6.3393e+00|   -4.725666|   -4.776980|   -5.414518|   -5.411621|   -5.004035|   -7.567092|    2.230027|
|         278|  6.3390e+00|   -4.725350|   -4.776591|   -5.414314|   -5.411411|   -5.003688|   -7.567103|    2.229790|
|         279|  6.3384e+00|   -4.725035|   -4.776205|   -5.414112|   -5.411201|   -5.003343|   -7.567114|    2.229555|
|         280|  6.3380e+00|   -4.724722|   -4.775821|   -5.413912|   -5.410989|   -5.003000|   -7.567127|    2.229320|
|         281|  6.3375e+00|   -4.724411|   -4.775440|   -5.413713|   -5.410778|   -5.002659|   -7.567140|    2.229087|
|         282|  6.3374e+00|   -4.724102|   -4.775061|   -5.413517|   -5.410565|   -5.002321|   -7.567154|    2.228855|
|         283|  6.3371e+00|   -4.723795|   -4.774685|   -5.413320|   -5.410353|   -5.001983|   -7.567169|    2.228623|
|         284|  6.3367e+00|   -4.723489|   -4.774311|   -5.413126|   -5.410139|   -5.001648|   -7.567184|    2.228393|
|         285|  6.3364e+00|   -4.723185|   -4.773938|   -5.412933|   -5.409925|   -5.001313|   -7.567201|    2.228163|
|         286|  6.3361e+00|   -4.722882|   -4.773568|   -5.412744|   -5.409710|   -5.000981|   -7.567219|    2.227935|
|         287|  6.3359e+00|   -4.722579|   -4.773198|   -5.412557|   -5.409494|   -5.000648|   -7.567237|    2.227707|
|         288|  6.3359e+00|   -4.722276|   -4.772827|   -5.412372|   -5.409276|   -5.000314|   -7.567257|    2.227480|
|         289|  6.3358e+00|   -4.721974|   -4.772457|   -5.412189|   -5.409058|   -4.999981|   -7.567281|    2.227255|
|         290|  6.3361e+00|   -4.721672|   -4.772089|   -5.412007|   -5.408837|   -4.999649|   -7.567306|    2.227030|
|         291|  6.3359e+00|   -4.721373|   -4.771723|   -5.411828|   -5.408616|   -4.999318|   -7.567331|    2.226807|
|         292|  6.3358e+00|   -4.721075|   -4.771359|   -5.411652|   -5.408394|   -4.998989|   -7.567358|    2.226584|
|         293|  6.3359e+00|   -4.720780|   -4.770998|   -5.411479|   -5.408172|   -4.998662|   -7.567385|    2.226363|
|         294|  6.3358e+00|   -4.720488|   -4.770640|   -5.411309|   -5.407950|   -4.998339|   -7.567413|    2.226142|
|         295|  6.3356e+00|   -4.720198|   -4.770285|   -5.411143|   -5.407727|   -4.998019|   -7.567442|    2.225922|
|         296|  6.3356e+00|   -4.719910|   -4.769933|   -5.410978|   -5.407503|   -4.997700|   -7.567473|    2.225704|
|         297|  6.3353e+00|   -4.719622|   -4.769581|   -5.410814|   -5.407279|   -4.997381|   -7.567504|    2.225486|
|         298|  6.3352e+00|   -4.719338|   -4.769232|   -5.410653|   -5.407054|   -4.997065|   -7.567536|    2.225270|
|         299|  6.3348e+00|   -4.719056|   -4.768887|   -5.410494|   -5.406830|   -4.996752|   -7.567570|    2.225054|
|         300|  6.3348e+00|   -4.718777|   -4.768545|   -5.410338|   -5.406606|   -4.996442|   -7.567605|    2.224839|
+-----------------------------------------------------------------------+
|        File Writing Summary       |              Filename             |
+-----------------------------------------------------------------------+
|SU2 binary restart                 |restart_flow.dat                   |
|Paraview                           |flow.vtu                           |
|Paraview surface                   |surface_flow.vtu                   |
+-----------------------------------------------------------------------+
+--------------------------------------------------------------------------------------------------------------------+
|  Inner_Iter|   Time(sec)|    rms[Rho]|   rms[RhoU]|   rms[RhoV]|   rms[RhoW]|   rms[RhoE]|     rms[nu]|          CD|
+--------------------------------------------------------------------------------------------------------------------+
|         301|  6.4184e+00|   -4.718501|   -4.768206|   -5.410186|   -5.406382|   -4.996135|   -7.567641|    2.224626|
|         302|  6.4191e+00|   -4.718228|   -4.767871|   -5.410040|   -5.406158|   -4.995831|   -7.567678|    2.224413|
|         303|  6.4201e+00|   -4.717958|   -4.767539|   -5.409897|   -5.405934|   -4.995531|   -7.567716|    2.224201|
|         304|  6.4199e+00|   -4.717692|   -4.767211|   -5.409758|   -5.405711|   -4.995234|   -7.567756|    2.223991|
|         305|  6.4197e+00|   -4.717429|   -4.766887|   -5.409624|   -5.405489|   -4.994941|   -7.567796|    2.223781|
|         306|  6.4196e+00|   -4.717169|   -4.766566|   -5.409492|   -5.405266|   -4.994651|   -7.567842|    2.223572|
|         307|  6.4194e+00|   -4.716912|   -4.766249|   -5.409363|   -5.405044|   -4.994364|   -7.567891|    2.223364|
|         308|  6.4188e+00|   -4.716659|   -4.765936|   -5.409236|   -5.404822|   -4.994080|   -7.567941|    2.223157|
|         309|  6.4176e+00|   -4.716408|   -4.765626|   -5.409113|   -5.404601|   -4.993799|   -7.567991|    2.222952|
|         310|  6.4168e+00|   -4.716160|   -4.765319|   -5.408992|   -5.404381|   -4.993521|   -7.568043|    2.222747|
|         311|  6.4163e+00|   -4.715913|   -4.765012|   -5.408872|   -5.404160|   -4.993243|   -7.568096|    2.222543|
|         312|  6.4157e+00|   -4.715668|   -4.764709|   -5.408756|   -5.403939|   -4.992968|   -7.568150|    2.222340|
|         313|  6.4151e+00|   -4.715427|   -4.764409|   -5.408645|   -5.403719|   -4.992696|   -7.568205|    2.222138|
|         314|  6.4142e+00|   -4.715189|   -4.764112|   -5.408536|   -5.403499|   -4.992427|   -7.568261|    2.221937|
|         315|  6.4135e+00|   -4.714953|   -4.763819|   -5.408427|   -5.403279|   -4.992160|   -7.568319|    2.221737|
|         316|  6.4129e+00|   -4.714719|   -4.763528|   -5.408319|   -5.403061|   -4.991896|   -7.568377|    2.221538|
|         317|  6.4123e+00|   -4.714488|   -4.763241|   -5.408212|   -5.402843|   -4.991634|   -7.568438|    2.221340|
|         318|  6.4118e+00|   -4.714260|   -4.762957|   -5.408109|   -5.402626|   -4.991375|   -7.568499|    2.221142|
|         319|  6.4113e+00|   -4.714036|   -4.762677|   -5.408006|   -5.402411|   -4.991119|   -7.568562|    2.220946|
|         320|  6.4105e+00|   -4.713814|   -4.762400|   -5.407906|   -5.402196|   -4.990867|   -7.568626|    2.220751|
|         321|  6.4101e+00|   -4.713595|   -4.762126|   -5.407808|   -5.401984|   -4.990617|   -7.568693|    2.220556|
|         322|  6.4095e+00|   -4.713379|   -4.761857|   -5.407711|   -5.401771|   -4.990371|   -7.568761|    2.220363|
|         323|  6.4088e+00|   -4.713167|   -4.761591|   -5.407617|   -5.401561|   -4.990128|   -7.568831|    2.220170|
|         324|  6.4081e+00|   -4.712956|   -4.761327|   -5.407523|   -5.401351|   -4.989887|   -7.568902|    2.219979|
|         325|  6.4077e+00|   -4.712748|   -4.761066|   -5.407431|   -5.401141|   -4.989648|   -7.568974|    2.219788|
|         326|  6.4071e+00|   -4.712542|   -4.760808|   -5.407341|   -5.400933|   -4.989411|   -7.569048|    2.219598|
|         327|  6.4066e+00|   -4.712339|   -4.760554|   -5.407252|   -5.400726|   -4.989178|   -7.569124|    2.219409|
|         328|  6.4060e+00|   -4.712139|   -4.760303|   -5.407164|   -5.400519|   -4.988947|   -7.569200|    2.219221|
|         329|  6.4054e+00|   -4.711941|   -4.760055|   -5.407076|   -5.400313|   -4.988719|   -7.569278|    2.219034|
|         330|  6.4047e+00|   -4.711746|   -4.759810|   -5.406989|   -5.400108|   -4.988493|   -7.569358|    2.218848|
|         331|  6.4041e+00|   -4.711552|   -4.759566|   -5.406904|   -5.399902|   -4.988268|   -7.569439|    2.218663|
|         332|  6.4036e+00|   -4.711360|   -4.759326|   -5.406820|   -5.399697|   -4.988046|   -7.569522|    2.218479|
|         333|  6.4027e+00|   -4.711170|   -4.759088|   -5.406738|   -5.399491|   -4.987825|   -7.569606|    2.218296|
|         334|  6.4020e+00|   -4.710983|   -4.758853|   -5.406659|   -5.399287|   -4.987608|   -7.569692|    2.218113|
|         335|  6.4015e+00|   -4.710798|   -4.758620|   -5.406582|   -5.399083|   -4.987392|   -7.569779|    2.217932|
|         336|  6.4015e+00|   -4.710615|   -4.758391|   -5.406507|   -5.398879|   -4.987179|   -7.569868|    2.217751|
|         337|  6.4010e+00|   -4.710434|   -4.758163|   -5.406434|   -5.398675|   -4.986968|   -7.569958|    2.217571|
|         338|  6.4005e+00|   -4.710255|   -4.757937|   -5.406361|   -5.398471|   -4.986758|   -7.570049|    2.217393|
|         339|  6.3996e+00|   -4.710077|   -4.757714|   -5.406290|   -5.398268|   -4.986550|   -7.570142|    2.217215|
|         340|  6.3991e+00|   -4.709901|   -4.757492|   -5.406220|   -5.398064|   -4.986343|   -7.570236|    2.217038|
|         341|  6.3987e+00|   -4.709726|   -4.757272|   -5.406151|   -5.397861|   -4.986138|   -7.570332|    2.216862|
|         342|  6.3992e+00|   -4.709552|   -4.757054|   -5.406082|   -5.397657|   -4.985934|   -7.570428|    2.216687|
|         343|  6.3992e+00|   -4.709381|   -4.756838|   -5.406015|   -5.397454|   -4.985732|   -7.570527|    2.216512|
|         344|  6.3990e+00|   -4.709212|   -4.756624|   -5.405950|   -5.397251|   -4.985532|   -7.570626|    2.216339|
|         345|  6.3988e+00|   -4.709045|   -4.756413|   -5.405888|   -5.397048|   -4.985335|   -7.570727|    2.216167|
|         346|  6.3985e+00|   -4.708877|   -4.756201|   -5.405827|   -5.396843|   -4.985137|   -7.570829|    2.215995|
|         347|  6.3983e+00|   -4.708711|   -4.755990|   -5.405769|   -5.396638|   -4.984941|   -7.570932|    2.215825|
|         348|  6.3980e+00|   -4.708549|   -4.755783|   -5.405714|   -5.396433|   -4.984748|   -7.571037|    2.215655|
|         349|  6.3973e+00|   -4.708389|   -4.755578|   -5.405660|   -5.396228|   -4.984557|   -7.571143|    2.215486|
|         350|  6.3965e+00|   -4.708232|   -4.755378|   -5.405607|   -5.396023|   -4.984370|   -7.571251|    2.215318|
|         351|  6.3960e+00|   -4.708077|   -4.755179|   -5.405554|   -5.395818|   -4.984185|   -7.571359|    2.215152|
|         352|  6.3959e+00|   -4.707924|   -4.754983|   -5.405501|   -5.395612|   -4.984001|   -7.571469|    2.214986|
|         353|  6.3958e+00|   -4.707773|   -4.754789|   -5.405448|   -5.395407|   -4.983820|   -7.571580|    2.214821|
|         354|  6.3953e+00|   -4.707624|   -4.754597|   -5.405396|   -5.395201|   -4.983640|   -7.571693|    2.214657|
|         355|  6.3944e+00|   -4.707477|   -4.754408|   -5.405347|   -5.394994|   -4.983463|   -7.571806|    2.214493|
|         356|  6.3938e+00|   -4.707332|   -4.754220|   -5.405297|   -5.394787|   -4.983287|   -7.571921|    2.214331|
|         357|  6.3935e+00|   -4.707189|   -4.754036|   -5.405248|   -5.394579|   -4.983114|   -7.572037|    2.214170|
|         358|  6.3933e+00|   -4.707048|   -4.753854|   -5.405201|   -5.394371|   -4.982942|   -7.572154|    2.214010|
|         359|  6.3926e+00|   -4.706908|   -4.753674|   -5.405156|   -5.394163|   -4.982773|   -7.572272|    2.213851|
|         360|  6.3920e+00|   -4.706771|   -4.753497|   -5.405111|   -5.393955|   -4.982607|   -7.572391|    2.213692|
|         361|  6.3912e+00|   -4.706636|   -4.753322|   -5.405067|   -5.393746|   -4.982442|   -7.572511|    2.213535|
|         362|  6.3904e+00|   -4.706500|   -4.753148|   -5.405023|   -5.393536|   -4.982276|   -7.572632|    2.213379|
|         363|  6.3897e+00|   -4.706367|   -4.752976|   -5.404979|   -5.393327|   -4.982114|   -7.572754|    2.213223|
|         364|  6.3890e+00|   -4.706237|   -4.752807|   -5.404937|   -5.393119|   -4.981954|   -7.572876|    2.213069|
|         365|  6.3884e+00|   -4.706108|   -4.752641|   -5.404897|   -5.392910|   -4.981797|   -7.573000|    2.212915|
|         366|  6.3879e+00|   -4.705983|   -4.752477|   -5.404858|   -5.392703|   -4.981643|   -7.573124|    2.212763|
|         367|  6.3874e+00|   -4.705860|   -4.752317|   -5.404823|   -5.392495|   -4.981492|   -7.573249|    2.212612|
|         368|  6.3866e+00|   -4.705739|   -4.752160|   -5.404788|   -5.392288|   -4.981343|   -7.573374|    2.212461|
|         369|  6.3859e+00|   -4.705621|   -4.752005|   -5.404754|   -5.392082|   -4.981197|   -7.573500|    2.212312|
|         370|  6.3853e+00|   -4.705505|   -4.751854|   -5.404722|   -5.391877|   -4.981053|   -7.573626|    2.212164|
|         371|  6.3848e+00|   -4.705391|   -4.751704|   -5.404692|   -5.391672|   -4.980912|   -7.573753|    2.212016|
|         372|  6.3843e+00|   -4.705279|   -4.751558|   -5.404663|   -5.391468|   -4.980774|   -7.573880|    2.211870|
|         373|  6.3837e+00|   -4.705170|   -4.751414|   -5.404636|   -5.391264|   -4.980638|   -7.574008|    2.211725|
|         374|  6.3837e+00|   -4.705062|   -4.751272|   -5.404609|   -5.391061|   -4.980504|   -7.574136|    2.211581|
|         375|  6.3832e+00|   -4.704957|   -4.751134|   -5.404584|   -5.390858|   -4.980372|   -7.574264|    2.211438|
|         376|  6.3826e+00|   -4.704854|   -4.750998|   -5.404560|   -5.390655|   -4.980244|   -7.574392|    2.211295|
|         377|  6.3820e+00|   -4.704754|   -4.750867|   -5.404536|   -5.390454|   -4.980119|   -7.574520|    2.211154|
|         378|  6.3814e+00|   -4.704656|   -4.750739|   -5.404515|   -5.390253|   -4.979997|   -7.574648|    2.211015|
|         379|  6.3807e+00|   -4.704560|   -4.750613|   -5.404495|   -5.390052|   -4.979877|   -7.574776|    2.210876|
|         380|  6.3804e+00|   -4.704465|   -4.750489|   -5.404475|   -5.389850|   -4.979759|   -7.574904|    2.210738|
|         381|  6.3800e+00|   -4.704372|   -4.750368|   -5.404456|   -5.389647|   -4.979643|   -7.575032|    2.210601|
|         382|  6.3796e+00|   -4.704280|   -4.750248|   -5.404437|   -5.389445|   -4.979528|   -7.575159|    2.210466|
|         383|  6.3796e+00|   -4.704191|   -4.750131|   -5.404419|   -5.389242|   -4.979416|   -7.575285|    2.210331|
|         384|  6.3794e+00|   -4.704104|   -4.750017|   -5.404404|   -5.389040|   -4.979306|   -7.575411|    2.210198|
|         385|  6.3792e+00|   -4.704019|   -4.749905|   -5.404389|   -5.388838|   -4.979199|   -7.575536|    2.210065|
|         386|  6.3786e+00|   -4.703937|   -4.749796|   -5.404376|   -5.388636|   -4.979095|   -7.575661|    2.209934|
|         387|  6.3781e+00|   -4.703857|   -4.749690|   -5.404365|   -5.388433|   -4.978993|   -7.575784|    2.209804|
|         388|  6.3775e+00|   -4.703775|   -4.749583|   -5.404354|   -5.388228|   -4.978890|   -7.575906|    2.209675|
|         389|  6.3769e+00|   -4.703694|   -4.749476|   -5.404347|   -5.388023|   -4.978788|   -7.576028|    2.209547|
|         390|  6.3763e+00|   -4.703613|   -4.749370|   -5.404340|   -5.387817|   -4.978686|   -7.576148|    2.209421|
|         391|  6.3759e+00|   -4.703534|   -4.749266|   -5.404334|   -5.387611|   -4.978586|   -7.576266|    2.209295|
|         392|  6.3753e+00|   -4.703454|   -4.749162|   -5.404325|   -5.387396|   -4.978485|   -7.576384|    2.209170|
|         393|  6.3749e+00|   -4.703372|   -4.749058|   -5.404314|   -5.387173|   -4.978383|   -7.576499|    2.209047|
|         394|  6.3742e+00|   -4.703293|   -4.748956|   -5.404304|   -5.386949|   -4.978283|   -7.576613|    2.208925|
|         395|  6.3734e+00|   -4.703216|   -4.748856|   -5.404295|   -5.386725|   -4.978185|   -7.576725|    2.208804|
|         396|  6.3729e+00|   -4.703140|   -4.748758|   -5.404284|   -5.386500|   -4.978089|   -7.576835|    2.208684|
|         397|  6.3724e+00|   -4.703064|   -4.748662|   -5.404273|   -5.386273|   -4.977993|   -7.576943|    2.208565|
|         398|  6.3721e+00|   -4.702986|   -4.748563|   -5.404262|   -5.386045|   -4.977895|   -7.577049|    2.208447|
|         399|  6.3715e+00|   -4.702909|   -4.748466|   -5.404250|   -5.385817|   -4.977799|   -7.577153|    2.208330|
|         400|  6.3708e+00|   -4.702829|   -4.748365|   -5.404240|   -5.385588|   -4.977699|   -7.577255|    2.208215|
|         401|  6.3700e+00|   -4.702747|   -4.748262|   -5.404231|   -5.385358|   -4.977596|   -7.577354|    2.208101|
|         402|  6.3695e+00|   -4.702665|   -4.748159|   -5.404222|   -5.385127|   -4.977495|   -7.577450|    2.207987|
|         403|  6.3694e+00|   -4.702585|   -4.748057|   -5.404214|   -5.384896|   -4.977395|   -7.577544|    2.207875|
|         404|  6.3691e+00|   -4.702506|   -4.747958|   -5.404209|   -5.384664|   -4.977296|   -7.577635|    2.207764|
|         405|  6.3687e+00|   -4.702428|   -4.747859|   -5.404206|   -5.384432|   -4.977200|   -7.577724|    2.207655|
|         406|  6.3684e+00|   -4.702352|   -4.747762|   -5.404206|   -5.384200|   -4.977104|   -7.577809|    2.207546|
|         407|  6.3680e+00|   -4.702277|   -4.747666|   -5.404206|   -5.383967|   -4.977011|   -7.577891|    2.207438|
|         408|  6.3675e+00|   -4.702203|   -4.747571|   -5.404206|   -5.383733|   -4.976918|   -7.577970|    2.207332|
|         409|  6.3670e+00|   -4.702130|   -4.747478|   -5.404207|   -5.383499|   -4.976827|   -7.578045|    2.207227|
|         410|  6.3665e+00|   -4.702059|   -4.747386|   -5.404210|   -5.383265|   -4.976737|   -7.578117|    2.207123|
|         411|  6.3660e+00|   -4.701989|   -4.747295|   -5.404212|   -5.383030|   -4.976649|   -7.578185|    2.207020|
|         412|  6.3658e+00|   -4.701914|   -4.747199|   -5.404217|   -5.382793|   -4.976556|   -7.578250|    2.206918|
|         413|  6.3653e+00|   -4.701840|   -4.747103|   -5.404223|   -5.382557|   -4.976463|   -7.578311|    2.206817|
|         414|  6.3647e+00|   -4.701766|   -4.747008|   -5.404229|   -5.382320|   -4.976372|   -7.578368|    2.206717|
|         415|  6.3643e+00|   -4.701693|   -4.746914|   -5.404235|   -5.382083|   -4.976280|   -7.578421|    2.206619|
|         416|  6.3642e+00|   -4.701620|   -4.746820|   -5.404243|   -5.381845|   -4.976189|   -7.578470|    2.206521|
|         417|  6.3638e+00|   -4.701548|   -4.746727|   -5.404251|   -5.381606|   -4.976099|   -7.578514|    2.206425|
|         418|  6.3635e+00|   -4.701477|   -4.746634|   -5.404262|   -5.381366|   -4.976009|   -7.578554|    2.206330|
|         419|  6.3632e+00|   -4.701405|   -4.746541|   -5.404273|   -5.381126|   -4.975919|   -7.578590|    2.206236|
|         420|  6.3629e+00|   -4.701335|   -4.746449|   -5.404286|   -5.380885|   -4.975830|   -7.578622|    2.206143|
|         421|  6.3624e+00|   -4.701266|   -4.746358|   -5.404302|   -5.380645|   -4.975742|   -7.578648|    2.206051|
|         422|  6.3618e+00|   -4.701198|   -4.746268|   -5.404321|   -5.380404|   -4.975656|   -7.578671|    2.205961|
|         423|  6.3612e+00|   -4.701132|   -4.746178|   -5.404342|   -5.380163|   -4.975571|   -7.578688|    2.205871|
|         424|  6.3608e+00|   -4.701067|   -4.746091|   -5.404364|   -5.379920|   -4.975487|   -7.578701|    2.205782|
|         425|  6.3603e+00|   -4.701003|   -4.746004|   -5.404387|   -5.379677|   -4.975404|   -7.578709|    2.205695|
|         426|  6.3599e+00|   -4.700940|   -4.745918|   -5.404413|   -5.379433|   -4.975321|   -7.578711|    2.205609|
|         427|  6.3596e+00|   -4.700875|   -4.745830|   -5.404439|   -5.379186|   -4.975237|   -7.578709|    2.205524|
|         428|  6.3591e+00|   -4.700812|   -4.745742|   -5.404466|   -5.378939|   -4.975153|   -7.578701|    2.205439|
|         429|  6.3588e+00|   -4.700749|   -4.745656|   -5.404495|   -5.378691|   -4.975070|   -7.578688|    2.205356|
|         430|  6.3583e+00|   -4.700687|   -4.745570|   -5.404526|   -5.378443|   -4.974988|   -7.578670|    2.205274|
|         431|  6.3578e+00|   -4.700627|   -4.745485|   -5.404558|   -5.378194|   -4.974906|   -7.578646|    2.205194|
|         432|  6.3576e+00|   -4.700566|   -4.745401|   -5.404589|   -5.377945|   -4.974824|   -7.578617|    2.205114|
|         433|  6.3572e+00|   -4.700506|   -4.745316|   -5.404622|   -5.377695|   -4.974743|   -7.578583|    2.205035|
|         434|  6.3567e+00|   -4.700447|   -4.745234|   -5.404657|   -5.377445|   -4.974662|   -7.578542|    2.204958|
|         435|  6.3562e+00|   -4.700389|   -4.745151|   -5.404692|   -5.377195|   -4.974582|   -7.578497|    2.204881|
|         436|  6.3556e+00|   -4.700331|   -4.745069|   -5.404728|   -5.376945|   -4.974502|   -7.578445|    2.204806|
|         437|  6.3552e+00|   -4.700275|   -4.744988|   -5.404764|   -5.376694|   -4.974422|   -7.578388|    2.204731|
|         438|  6.3547e+00|   -4.700220|   -4.744909|   -5.404801|   -5.376443|   -4.974344|   -7.578326|    2.204658|
|         439|  6.3544e+00|   -4.700167|   -4.744830|   -5.404839|   -5.376193|   -4.974266|   -7.578257|    2.204586|
|         440|  6.3541e+00|   -4.700114|   -4.744752|   -5.404877|   -5.375943|   -4.974189|   -7.578183|    2.204515|
|         441|  6.3538e+00|   -4.700063|   -4.744675|   -5.404917|   -5.375693|   -4.974113|   -7.578104|    2.204445|
|         442|  6.3535e+00|   -4.700012|   -4.744600|   -5.404957|   -5.375441|   -4.974037|   -7.578018|    2.204376|
|         443|  6.3531e+00|   -4.699963|   -4.744525|   -5.404997|   -5.375189|   -4.973962|   -7.577927|    2.204308|
|         444|  6.3527e+00|   -4.699916|   -4.744452|   -5.405039|   -5.374937|   -4.973888|   -7.577830|    2.204241|
|         445|  6.3525e+00|   -4.699870|   -4.744381|   -5.405080|   -5.374685|   -4.973815|   -7.577727|    2.204175|
|         446|  6.3522e+00|   -4.699825|   -4.744311|   -5.405123|   -5.374434|   -4.973743|   -7.577619|    2.204111|
|         447|  6.3518e+00|   -4.699782|   -4.744242|   -5.405166|   -5.374183|   -4.973672|   -7.577505|    2.204047|
|         448|  6.3515e+00|   -4.699741|   -4.744175|   -5.405210|   -5.373932|   -4.973603|   -7.577385|    2.203984|
|         449|  6.3512e+00|   -4.699702|   -4.744109|   -5.405256|   -5.373683|   -4.973534|   -7.577260|    2.203923|
|         450|  6.3508e+00|   -4.699664|   -4.744045|   -5.405303|   -5.373436|   -4.973468|   -7.577129|    2.203863|
+-----------------------------------------------------------------------+
|        File Writing Summary       |              Filename             |
+-----------------------------------------------------------------------+
|SU2 binary restart                 |restart_flow.dat                   |
|Paraview                           |flow.vtu                           |
|Paraview surface                   |surface_flow.vtu                   |
+-----------------------------------------------------------------------+
+--------------------------------------------------------------------------------------------------------------------+
|  Inner_Iter|   Time(sec)|    rms[Rho]|   rms[RhoU]|   rms[RhoV]|   rms[RhoW]|   rms[RhoE]|     rms[nu]|          CD|
+--------------------------------------------------------------------------------------------------------------------+
|         451|  6.4092e+00|   -4.699629|   -4.743982|   -5.405350|   -5.373189|   -4.973402|   -7.576992|    2.203803|
|         452|  6.4089e+00|   -4.699595|   -4.743921|   -5.405398|   -5.372942|   -4.973337|   -7.576850|    2.203745|
|         453|  6.4084e+00|   -4.699563|   -4.743862|   -5.405445|   -5.372696|   -4.973274|   -7.576703|    2.203688|
|         454|  6.4080e+00|   -4.699532|   -4.743804|   -5.405492|   -5.372450|   -4.973212|   -7.576550|    2.203632|
|         455|  6.4074e+00|   -4.699504|   -4.743748|   -5.405540|   -5.372206|   -4.973151|   -7.576392|    2.203577|
|         456|  6.4071e+00|   -4.699477|   -4.743693|   -5.405591|   -5.371962|   -4.973091|   -7.576228|    2.203524|
|         457|  6.4068e+00|   -4.699452|   -4.743640|   -5.405643|   -5.371720|   -4.973032|   -7.576059|    2.203471|
|         458|  6.4062e+00|   -4.699430|   -4.743590|   -5.405697|   -5.371480|   -4.972976|   -7.575885|    2.203419|
|         459|  6.4056e+00|   -4.699410|   -4.743542|   -5.405754|   -5.371242|   -4.972921|   -7.575706|    2.203369|
|         460|  6.4050e+00|   -4.699393|   -4.743496|   -5.405810|   -5.371004|   -4.972868|   -7.575521|    2.203319|
|         461|  6.4043e+00|   -4.699378|   -4.743452|   -5.405867|   -5.370768|   -4.972817|   -7.575332|    2.203271|
|         462|  6.4040e+00|   -4.699365|   -4.743411|   -5.405923|   -5.370534|   -4.972767|   -7.575138|    2.203224|
|         463|  6.4036e+00|   -4.699354|   -4.743372|   -5.405980|   -5.370301|   -4.972719|   -7.574938|    2.203178|
|         464|  6.4038e+00|   -4.699346|   -4.743336|   -5.406036|   -5.370071|   -4.972673|   -7.574734|    2.203133|
|         465|  6.4035e+00|   -4.699340|   -4.743303|   -5.406093|   -5.369842|   -4.972629|   -7.574525|    2.203089|
|         466|  6.4029e+00|   -4.699336|   -4.743272|   -5.406150|   -5.369616|   -4.972586|   -7.574312|    2.203047|
|         467|  6.4022e+00|   -4.699335|   -4.743243|   -5.406207|   -5.369392|   -4.972545|   -7.574094|    2.203005|
|         468|  6.4016e+00|   -4.699336|   -4.743218|   -5.406265|   -5.369172|   -4.972506|   -7.573871|    2.202965|
|         469|  6.4010e+00|   -4.699340|   -4.743195|   -5.406323|   -5.368954|   -4.972470|   -7.573644|    2.202926|
|         470|  6.4002e+00|   -4.699346|   -4.743175|   -5.406381|   -5.368738|   -4.972435|   -7.573412|    2.202888|
|         471|  6.3994e+00|   -4.699356|   -4.743158|   -5.406439|   -5.368526|   -4.972404|   -7.573176|    2.202851|
|         472|  6.4003e+00|   -4.699370|   -4.743145|   -5.406499|   -5.368318|   -4.972375|   -7.572936|    2.202816|
|         473|  6.3999e+00|   -4.699385|   -4.743134|   -5.406559|   -5.368113|   -4.972348|   -7.572692|    2.202781|
|         474|  6.3997e+00|   -4.699405|   -4.743126|   -5.406620|   -5.367911|   -4.972324|   -7.572444|    2.202748|
|         475|  6.3992e+00|   -4.699427|   -4.743122|   -5.406682|   -5.367711|   -4.972302|   -7.572192|    2.202716|
|         476|  6.3987e+00|   -4.699453|   -4.743120|   -5.406744|   -5.367515|   -4.972283|   -7.571936|    2.202685|
|         477|  6.3984e+00|   -4.699483|   -4.743122|   -5.406807|   -5.367322|   -4.972268|   -7.571677|    2.202655|
|         478|  6.3978e+00|   -4.699515|   -4.743127|   -5.406870|   -5.367132|   -4.972254|   -7.571414|    2.202626|
|         479|  6.3971e+00|   -4.699551|   -4.743134|   -5.406934|   -5.366946|   -4.972242|   -7.571147|    2.202599|
|         480|  6.3966e+00|   -4.699589|   -4.743144|   -5.406999|   -5.366762|   -4.972233|   -7.570877|    2.202573|
|         481|  6.3961e+00|   -4.699630|   -4.743157|   -5.407064|   -5.366581|   -4.972226|   -7.570604|    2.202548|
|         482|  6.3956e+00|   -4.699675|   -4.743173|   -5.407128|   -5.366405|   -4.972222|   -7.570327|    2.202524|
|         483|  6.3951e+00|   -4.699724|   -4.743193|   -5.407193|   -5.366232|   -4.972221|   -7.570048|    2.202502|
|         484|  6.3945e+00|   -4.699776|   -4.743217|   -5.407257|   -5.366062|   -4.972223|   -7.569765|    2.202481|
|         485|  6.3938e+00|   -4.699832|   -4.743244|   -5.407323|   -5.365895|   -4.972228|   -7.569480|    2.202461|
|         486|  6.3933e+00|   -4.699893|   -4.743275|   -5.407390|   -5.365732|   -4.972236|   -7.569192|    2.202442|
|         487|  6.3928e+00|   -4.699956|   -4.743309|   -5.407457|   -5.365573|   -4.972247|   -7.568901|    2.202425|
|         488|  6.3923e+00|   -4.700023|   -4.743348|   -5.407524|   -5.365416|   -4.972261|   -7.568608|    2.202409|
|         489|  6.3917e+00|   -4.700093|   -4.743389|   -5.407590|   -5.365263|   -4.972277|   -7.568313|    2.202394|
|         490|  6.3910e+00|   -4.700167|   -4.743435|   -5.407658|   -5.365113|   -4.972296|   -7.568015|    2.202380|
|         491|  6.3903e+00|   -4.700244|   -4.743484|   -5.407726|   -5.364967|   -4.972318|   -7.567715|    2.202367|
|         492|  6.3899e+00|   -4.700324|   -4.743536|   -5.407794|   -5.364825|   -4.972342|   -7.567412|    2.202356|
|         493|  6.3895e+00|   -4.700407|   -4.743591|   -5.407862|   -5.364686|   -4.972369|   -7.567107|    2.202346|
|         494|  6.3892e+00|   -4.700493|   -4.743650|   -5.407931|   -5.364551|   -4.972398|   -7.566801|    2.202338|
|         495|  6.3886e+00|   -4.700583|   -4.743713|   -5.408001|   -5.364419|   -4.972431|   -7.566492|    2.202330|
|         496|  6.3879e+00|   -4.700677|   -4.743780|   -5.408071|   -5.364290|   -4.972466|   -7.566182|    2.202324|
|         497|  6.3874e+00|   -4.700774|   -4.743851|   -5.408144|   -5.364165|   -4.972505|   -7.565870|    2.202320|
|         498|  6.3871e+00|   -4.700876|   -4.743925|   -5.408218|   -5.364044|   -4.972548|   -7.565556|    2.202316|
|         499|  6.3866e+00|   -4.700981|   -4.744004|   -5.408293|   -5.363928|   -4.972594|   -7.565242|    2.202314|
|         500|  6.3861e+00|   -4.701089|   -4.744086|   -5.408368|   -5.363815|   -4.972642|   -7.564925|    2.202313|
|         501|  6.3856e+00|   -4.701200|   -4.744172|   -5.408444|   -5.363706|   -4.972693|   -7.564608|    2.202313|
|         502|  6.3850e+00|   -4.701316|   -4.744262|   -5.408520|   -5.363601|   -4.972748|   -7.564290|    2.202315|
|         503|  6.3847e+00|   -4.701433|   -4.744355|   -5.408598|   -5.363499|   -4.972805|   -7.563971|    2.202318|
|         504|  6.3844e+00|   -4.701554|   -4.744451|   -5.408678|   -5.363401|   -4.972864|   -7.563651|    2.202322|
|         505|  6.3839e+00|   -4.701679|   -4.744549|   -5.408759|   -5.363308|   -4.972926|   -7.563330|    2.202328|
|         506|  6.3834e+00|   -4.701806|   -4.744652|   -5.408839|   -5.363218|   -4.972991|   -7.563009|    2.202334|
|         507|  6.3829e+00|   -4.701937|   -4.744757|   -5.408921|   -5.363131|   -4.973059|   -7.562687|    2.202342|
|         508|  6.3822e+00|   -4.702072|   -4.744867|   -5.409002|   -5.363050|   -4.973130|   -7.562365|    2.202352|
|         509|  6.3818e+00|   -4.702209|   -4.744979|   -5.409085|   -5.362973|   -4.973204|   -7.562042|    2.202362|
|         510|  6.3813e+00|   -4.702350|   -4.745095|   -5.409167|   -5.362899|   -4.973280|   -7.561720|    2.202374|
|         511|  6.3809e+00|   -4.702493|   -4.745213|   -5.409249|   -5.362829|   -4.973358|   -7.561397|    2.202388|
|         512|  6.3804e+00|   -4.702639|   -4.745335|   -5.409331|   -5.362762|   -4.973439|   -7.561075|    2.202402|
|         513|  6.3802e+00|   -4.702789|   -4.745461|   -5.409413|   -5.362699|   -4.973523|   -7.560752|    2.202418|
|         514|  6.3800e+00|   -4.702942|   -4.745591|   -5.409496|   -5.362640|   -4.973611|   -7.560430|    2.202435|
|         515|  6.3796e+00|   -4.703099|   -4.745724|   -5.409578|   -5.362584|   -4.973702|   -7.560108|    2.202453|
|         516|  6.3794e+00|   -4.703260|   -4.745861|   -5.409661|   -5.362531|   -4.973795|   -7.559787|    2.202473|
|         517|  6.3789e+00|   -4.703424|   -4.746002|   -5.409744|   -5.362482|   -4.973892|   -7.559466|    2.202494|
|         518|  6.3785e+00|   -4.703591|   -4.746146|   -5.409830|   -5.362437|   -4.973992|   -7.559145|    2.202516|
|         519|  6.3781e+00|   -4.703761|   -4.746294|   -5.409915|   -5.362395|   -4.974095|   -7.558825|    2.202540|
|         520|  6.3778e+00|   -4.703933|   -4.746445|   -5.410001|   -5.362358|   -4.974200|   -7.558506|    2.202564|
|         521|  6.3772e+00|   -4.704109|   -4.746598|   -5.410087|   -5.362324|   -4.974308|   -7.558188|    2.202590|
|         522|  6.3768e+00|   -4.704289|   -4.746755|   -5.410173|   -5.362294|   -4.974419|   -7.557871|    2.202618|
|         523|  6.3764e+00|   -4.704469|   -4.746914|   -5.410258|   -5.362267|   -4.974530|   -7.557555|    2.202646|
|         524|  6.3759e+00|   -4.704653|   -4.747077|   -5.410343|   -5.362243|   -4.974645|   -7.557240|    2.202676|
|         525|  6.3756e+00|   -4.704840|   -4.747243|   -5.410428|   -5.362223|   -4.974763|   -7.556925|    2.202707|
|         526|  6.3752e+00|   -4.705029|   -4.747410|   -5.410513|   -5.362206|   -4.974882|   -7.556612|    2.202739|
|         527|  6.3746e+00|   -4.705217|   -4.747577|   -5.410596|   -5.362189|   -4.975001|   -7.556299|    2.202772|
|         528|  6.3741e+00|   -4.705408|   -4.747746|   -5.410680|   -5.362175|   -4.975121|   -7.555988|    2.202807|
|         529|  6.3737e+00|   -4.705600|   -4.747916|   -5.410761|   -5.362162|   -4.975243|   -7.555679|    2.202843|
|         530|  6.3732e+00|   -4.705793|   -4.748089|   -5.410842|   -5.362151|   -4.975365|   -7.555371|    2.202880|
|         531|  6.3727e+00|   -4.705988|   -4.748264|   -5.410922|   -5.362143|   -4.975490|   -7.555065|    2.202919|
|         532|  6.3723e+00|   -4.706187|   -4.748442|   -5.411002|   -5.362139|   -4.975616|   -7.554760|    2.202958|
|         533|  6.3717e+00|   -4.706388|   -4.748623|   -5.411082|   -5.362139|   -4.975746|   -7.554458|    2.202999|
|         534|  6.3713e+00|   -4.706591|   -4.748806|   -5.411160|   -5.362142|   -4.975878|   -7.554157|    2.203041|
|         535|  6.3711e+00|   -4.706798|   -4.748992|   -5.411239|   -5.362149|   -4.976012|   -7.553858|    2.203084|
|         536|  6.3706e+00|   -4.707006|   -4.749179|   -5.411316|   -5.362160|   -4.976148|   -7.553561|    2.203129|
|         537|  6.3702e+00|   -4.707215|   -4.749369|   -5.411393|   -5.362174|   -4.976285|   -7.553266|    2.203174|
|         538|  6.3698e+00|   -4.707427|   -4.749561|   -5.411468|   -5.362191|   -4.976424|   -7.552973|    2.203221|
[...]
|        5530|  6.2466e+00|   -4.920111|   -4.995931|   -5.606278|   -5.359095|   -5.194881|   -7.601930|    2.307731|
|        5531|  6.2464e+00|   -4.920741|   -4.996576|   -5.606570|   -5.359631|   -5.195381|   -7.601899|    2.307867|
|        5532|  6.2463e+00|   -4.921373|   -4.997225|   -5.606860|   -5.360168|   -5.195882|   -7.601865|    2.308004|
|        5533|  6.2462e+00|   -4.922008|   -4.997877|   -5.607148|   -5.360704|   -5.196386|   -7.601830|    2.308141|
|        5534|  6.2461e+00|   -4.922645|   -4.998532|   -5.607434|   -5.361240|   -5.196893|   -7.601793|    2.308281|
|        5535|  6.2460e+00|   -4.923284|   -4.999190|   -5.607719|   -5.361777|   -5.197401|   -7.601754|    2.308421|
|        5536|  6.2458e+00|   -4.923922|   -4.999851|   -5.608002|   -5.362314|   -5.197909|   -7.601712|    2.308562|
|        5537|  6.2457e+00|   -4.924563|   -5.000514|   -5.608283|   -5.362852|   -5.198419|   -7.601669|    2.308705|
|        5538|  6.2456e+00|   -4.925204|   -5.001180|   -5.608562|   -5.363390|   -5.198930|   -7.601624|    2.308849|
|        5539|  6.2455e+00|   -4.925846|   -5.001848|   -5.608839|   -5.363928|   -5.199442|   -7.601577|    2.308994|
|        5540|  6.2454e+00|   -4.926489|   -5.002519|   -5.609114|   -5.364467|   -5.199955|   -7.601528|    2.309140|
|        5541|  6.2453e+00|   -4.927134|   -5.003193|   -5.609387|   -5.365007|   -5.200471|   -7.601477|    2.309287|
|        5542|  6.2452e+00|   -4.927780|   -5.003869|   -5.609657|   -5.365547|   -5.200987|   -7.601425|    2.309436|
|        5543|  6.2451e+00|   -4.928427|   -5.004549|   -5.609925|   -5.366088|   -5.201505|   -7.601370|    2.309585|
|        5544|  6.2450e+00|   -4.929074|   -5.005231|   -5.610191|   -5.366630|   -5.202024|   -7.601314|    2.309736|
|        5545|  6.2449e+00|   -4.929722|   -5.005915|   -5.610455|   -5.367171|   -5.202544|   -7.601256|    2.309888|
|        5546|  6.2448e+00|   -4.930372|   -5.006602|   -5.610717|   -5.367713|   -5.203065|   -7.601196|    2.310041|
|        5547|  6.2447e+00|   -4.931022|   -5.007291|   -5.610978|   -5.368256|   -5.203588|   -7.601134|    2.310195|
|        5548|  6.2446e+00|   -4.931690|   -5.008003|   -5.611236|   -5.368812|   -5.204129|   -7.601071|    2.310351|
|        5549|  6.2445e+00|   -4.932366|   -5.008728|   -5.611491|   -5.369374|   -5.204679|   -7.601005|    2.310507|
|        5550|  6.2444e+00|   -4.933042|   -5.009453|   -5.611742|   -5.369935|   -5.205228|   -7.600938|    2.310664|
+-----------------------------------------------------------------------+
|        File Writing Summary       |              Filename             |
+-----------------------------------------------------------------------+
|SU2 binary restart                 |restart_flow.dat                   |
|Paraview                           |flow.vtu                           |
|Paraview surface                   |surface_flow.vtu                   |
+-----------------------------------------------------------------------+
+--------------------------------------------------------------------------------------------------------------------+
|  Inner_Iter|   Time(sec)|    rms[Rho]|   rms[RhoU]|   rms[RhoV]|   rms[RhoW]|   rms[RhoE]|     rms[nu]|          CD|
+--------------------------------------------------------------------------------------------------------------------+
|        5551|  6.2483e+00|   -4.933718|   -5.010179|   -5.611992|   -5.370495|   -5.205778|   -7.600870|    2.310823|
|        5552|  6.2482e+00|   -4.934394|   -5.010906|   -5.612239|   -5.371053|   -5.206327|   -7.600799|    2.310982|
|        5553|  6.2482e+00|   -4.935069|   -5.011633|   -5.612483|   -5.371609|   -5.206876|   -7.600727|    2.311143|
|        5554|  6.2481e+00|   -4.935744|   -5.012360|   -5.612724|   -5.372162|   -5.207424|   -7.600654|    2.311304|
|        5555|  6.2480e+00|   -4.936419|   -5.013088|   -5.612962|   -5.372714|   -5.207972|   -7.600579|    2.311467|
|        5556|  6.2479e+00|   -4.937093|   -5.013815|   -5.613197|   -5.373263|   -5.208520|   -7.600502|    2.311630|
|        5557|  6.2478e+00|   -4.937766|   -5.014542|   -5.613429|   -5.373812|   -5.209067|   -7.600424|    2.311795|
|        5558|  6.2477e+00|   -4.938438|   -5.015268|   -5.613659|   -5.374358|   -5.209612|   -7.600345|    2.311960|
|        5559|  6.2475e+00|   -4.939110|   -5.015995|   -5.613885|   -5.374903|   -5.210158|   -7.600263|    2.312127|
|        5560|  6.2474e+00|   -4.939783|   -5.016723|   -5.614109|   -5.375447|   -5.210705|   -7.600181|    2.312294|
|        5561|  6.2473e+00|   -4.940457|   -5.017452|   -5.614331|   -5.375991|   -5.211253|   -7.600097|    2.312462|
|        5562|  6.2472e+00|   -4.941131|   -5.018182|   -5.614551|   -5.376534|   -5.211801|   -7.600011|    2.312632|
|        5563|  6.2471e+00|   -4.941806|   -5.018912|   -5.614769|   -5.377074|   -5.212349|   -7.599924|    2.312802|
|        5564|  6.2470e+00|   -4.942483|   -5.019644|   -5.614988|   -5.377616|   -5.212899|   -7.599836|    2.312973|
|        5565|  6.2469e+00|   -4.943160|   -5.020376|   -5.615204|   -5.378156|   -5.213451|   -7.599746|    2.313145|
|        5566|  6.2468e+00|   -4.943838|   -5.021110|   -5.615420|   -5.378693|   -5.214002|   -7.599655|    2.313318|
|        5567|  6.2467e+00|   -4.944516|   -5.021843|   -5.615631|   -5.379228|   -5.214554|   -7.599562|    2.313491|
|        5568|  6.2466e+00|   -4.945195|   -5.022578|   -5.615840|   -5.379758|   -5.215107|   -7.599469|    2.313666|
|        5569|  6.2464e+00|   -4.945875|   -5.023313|   -5.616047|   -5.380285|   -5.215660|   -7.599373|    2.313841|
|        5570|  6.2463e+00|   -4.946556|   -5.024050|   -5.616249|   -5.380810|   -5.216213|   -7.599277|    2.314017|
|        5571|  6.2462e+00|   -4.947237|   -5.024788|   -5.616449|   -5.381332|   -5.216768|   -7.599179|    2.314194|
|        5572|  6.2461e+00|   -4.947921|   -5.025528|   -5.616646|   -5.381851|   -5.217324|   -7.599080|    2.314372|
|        5573|  6.2460e+00|   -4.948603|   -5.026269|   -5.616841|   -5.382367|   -5.217879|   -7.598979|    2.314551|
|        5574|  6.2459e+00|   -4.949286|   -5.027010|   -5.617032|   -5.382880|   -5.218435|   -7.598877|    2.314730|
|        5575|  6.2458e+00|   -4.949971|   -5.027753|   -5.617221|   -5.383391|   -5.218993|   -7.598774|    2.314910|
|        5576|  6.2457e+00|   -4.950657|   -5.028498|   -5.617407|   -5.383899|   -5.219551|   -7.598670|    2.315091|
|        5577|  6.2456e+00|   -4.951344|   -5.029245|   -5.617591|   -5.384404|   -5.220110|   -7.598564|    2.315272|
|        5578|  6.2455e+00|   -4.952030|   -5.029992|   -5.617770|   -5.384906|   -5.220669|   -7.598458|    2.315454|
|        5579|  6.2454e+00|   -4.952717|   -5.030741|   -5.617948|   -5.385406|   -5.221228|   -7.598350|    2.315637|
|        5580|  6.2453e+00|   -4.953402|   -5.031491|   -5.618122|   -5.385902|   -5.221787|   -7.598241|    2.315821|
|        5581|  6.2452e+00|   -4.954088|   -5.032243|   -5.618291|   -5.386396|   -5.222346|   -7.598131|    2.316005|
|        5582|  6.2450e+00|   -4.954775|   -5.032997|   -5.618459|   -5.386887|   -5.222907|   -7.598020|    2.316190|
|        5583|  6.2449e+00|   -4.955462|   -5.033753|   -5.618624|   -5.387377|   -5.223468|   -7.597907|    2.316376|
|        5584|  6.2448e+00|   -4.956149|   -5.034511|   -5.618784|   -5.387863|   -5.224030|   -7.597793|    2.316563|
|        5585|  6.2447e+00|   -4.956836|   -5.035270|   -5.618940|   -5.388347|   -5.224591|   -7.597678|    2.316750|
|        5586|  6.2446e+00|   -4.957523|   -5.036031|   -5.619092|   -5.388828|   -5.225153|   -7.597561|    2.316937|
|        5587|  6.2445e+00|   -4.958208|   -5.036793|   -5.619240|   -5.389306|   -5.225715|   -7.597443|    2.317126|
|        5588|  6.2444e+00|   -4.958894|   -5.037556|   -5.619385|   -5.389782|   -5.226277|   -7.597324|    2.317315|
|        5589|  6.2443e+00|   -4.959579|   -5.038320|   -5.619525|   -5.390256|   -5.226839|   -7.597204|    2.317504|
|        5590|  6.2442e+00|   -4.960263|   -5.039085|   -5.619662|   -5.390728|   -5.227400|   -7.597083|    2.317694|
|        5591|  6.2441e+00|   -4.960947|   -5.039852|   -5.619796|   -5.391197|   -5.227963|   -7.596961|    2.317885|
|        5592|  6.2440e+00|   -4.961629|   -5.040621|   -5.619926|   -5.391664|   -5.228525|   -7.596838|    2.318077|
|        5593|  6.2438e+00|   -4.962308|   -5.041389|   -5.620050|   -5.392129|   -5.229084|   -7.596714|    2.318269|
|        5594|  6.2437e+00|   -4.962986|   -5.042158|   -5.620170|   -5.392592|   -5.229643|   -7.596589|    2.318461|
|        5595|  6.2436e+00|   -4.963662|   -5.042927|   -5.620285|   -5.393053|   -5.230202|   -7.596464|    2.318655|
|        5596|  6.2435e+00|   -4.964338|   -5.043698|   -5.620397|   -5.393511|   -5.230761|   -7.596337|    2.318849|
|        5597|  6.2434e+00|   -4.965013|   -5.044469|   -5.620507|   -5.393967|   -5.231320|   -7.596210|    2.319043|
|        5598|  6.2432e+00|   -4.965685|   -5.045240|   -5.620614|   -5.394422|   -5.231878|   -7.596081|    2.319238|
|        5599|  6.2431e+00|   -4.966356|   -5.046011|   -5.620717|   -5.394874|   -5.232435|   -7.595952|    2.319434|
|        5600|  6.2430e+00|   -4.967024|   -5.046783|   -5.620818|   -5.395323|   -5.232992|   -7.595821|    2.319630|
|        5601|  6.2429e+00|   -4.967691|   -5.047555|   -5.620917|   -5.395770|   -5.233547|   -7.595690|    2.319827|
|        5602|  6.2428e+00|   -4.968357|   -5.048327|   -5.621014|   -5.396215|   -5.234104|   -7.595557|    2.320024|
|        5603|  6.2427e+00|   -4.969020|   -5.049099|   -5.621109|   -5.396659|   -5.234659|   -7.595424|    2.320222|
|        5604|  6.2426e+00|   -4.969680|   -5.049871|   -5.621200|   -5.397100|   -5.235212|   -7.595289|    2.320420|
|        5605|  6.2425e+00|   -4.970338|   -5.050642|   -5.621290|   -5.397539|   -5.235765|   -7.595153|    2.320619|
|        5606|  6.2423e+00|   -4.970994|   -5.051414|   -5.621375|   -5.397977|   -5.236317|   -7.595017|    2.320819|
|        5607|  6.2422e+00|   -4.971650|   -5.052184|   -5.621457|   -5.398413|   -5.236870|   -7.594880|    2.321019|
|        5608|  6.2421e+00|   -4.972305|   -5.052954|   -5.621537|   -5.398847|   -5.237423|   -7.594742|    2.321220|
|        5609|  6.2420e+00|   -4.972958|   -5.053724|   -5.621613|   -5.399278|   -5.237975|   -7.594602|    2.321422|
|        5610|  6.2419e+00|   -4.973609|   -5.054492|   -5.621687|   -5.399706|   -5.238526|   -7.594462|    2.321623|
|        5611|  6.2418e+00|   -4.974257|   -5.055260|   -5.621757|   -5.400132|   -5.239075|   -7.594321|    2.321826|
|        5612|  6.2416e+00|   -4.974904|   -5.056028|   -5.621827|   -5.400556|   -5.239625|   -7.594179|    2.322029|
|        5613|  6.2415e+00|   -4.975551|   -5.056796|   -5.621894|   -5.400978|   -5.240175|   -7.594036|    2.322233|
|        5614|  6.2414e+00|   -4.976197|   -5.057563|   -5.621958|   -5.401398|   -5.240726|   -7.593892|    2.322437|
|        5615|  6.2414e+00|   -4.976841|   -5.058330|   -5.622018|   -5.401815|   -5.241275|   -7.593747|    2.322642|
|        5616|  6.2413e+00|   -4.977482|   -5.059096|   -5.622074|   -5.402230|   -5.241824|   -7.593601|    2.322847|
|        5617|  6.2412e+00|   -4.978122|   -5.059861|   -5.622128|   -5.402643|   -5.242372|   -7.593455|    2.323053|
|        5618|  6.2411e+00|   -4.978760|   -5.060625|   -5.622177|   -5.403053|   -5.242920|   -7.593307|    2.323260|
|        5619|  6.2410e+00|   -4.979398|   -5.061389|   -5.622225|   -5.403461|   -5.243467|   -7.593159|    2.323467|
|        5620|  6.2409e+00|   -4.980035|   -5.062152|   -5.622271|   -5.403866|   -5.244016|   -7.593009|    2.323675|
|        5621|  6.2408e+00|   -4.980671|   -5.062915|   -5.622315|   -5.404267|   -5.244565|   -7.592859|    2.323883|
|        5622|  6.2406e+00|   -4.981307|   -5.063677|   -5.622357|   -5.404664|   -5.245113|   -7.592708|    2.324092|
|        5623|  6.2405e+00|   -4.981941|   -5.064439|   -5.622397|   -5.405058|   -5.245661|   -7.592557|    2.324301|
|        5624|  6.2404e+00|   -4.982574|   -5.065200|   -5.622435|   -5.405448|   -5.246209|   -7.592404|    2.324511|
|        5625|  6.2403e+00|   -4.983205|   -5.065959|   -5.622469|   -5.405833|   -5.246756|   -7.592251|    2.324722|
|        5626|  6.2403e+00|   -4.983834|   -5.066718|   -5.622501|   -5.406214|   -5.247302|   -7.592098|    2.324933|
|        5627|  6.2402e+00|   -4.984460|   -5.067474|   -5.622530|   -5.406590|   -5.247845|   -7.591944|    2.325145|
|        5628|  6.2400e+00|   -4.985083|   -5.068230|   -5.622556|   -5.406962|   -5.248388|   -7.591789|    2.325357|
|        5629|  6.2399e+00|   -4.985703|   -5.068983|   -5.622580|   -5.407330|   -5.248928|   -7.591634|    2.325570|
|        5630|  6.2398e+00|   -4.986318|   -5.069735|   -5.622600|   -5.407693|   -5.249466|   -7.591478|    2.325784|
|        5631|  6.2397e+00|   -4.986929|   -5.070484|   -5.622616|   -5.408052|   -5.250000|   -7.591322|    2.325998|
|        5632|  6.2396e+00|   -4.987536|   -5.071230|   -5.622629|   -5.408406|   -5.250532|   -7.591164|    2.326213|
|        5633|  6.2395e+00|   -4.988139|   -5.071973|   -5.622639|   -5.408758|   -5.251062|   -7.591006|    2.326429|
|        5634|  6.2394e+00|   -4.988739|   -5.072715|   -5.622645|   -5.409106|   -5.251590|   -7.590848|    2.326645|
|        5635|  6.2393e+00|   -4.989333|   -5.073453|   -5.622649|   -5.409450|   -5.252115|   -7.590688|    2.326861|
|        5636|  6.2392e+00|   -4.989922|   -5.074189|   -5.622648|   -5.409788|   -5.252636|   -7.590528|    2.327079|
|        5637|  6.2391e+00|   -4.990506|   -5.074922|   -5.622646|   -5.410123|   -5.253154|   -7.590367|    2.327296|
|        5638|  6.2390e+00|   -4.991082|   -5.075649|   -5.622640|   -5.410452|   -5.253667|   -7.590205|    2.327515|
|        5639|  6.2389e+00|   -4.991654|   -5.076374|   -5.622632|   -5.410776|   -5.254177|   -7.590043|    2.327734|
|        5640|  6.2388e+00|   -4.992222|   -5.077095|   -5.622623|   -5.411097|   -5.254685|   -7.589880|    2.327954|
|        5641|  6.2387e+00|   -4.992785|   -5.077813|   -5.622613|   -5.411415|   -5.255190|   -7.589717|    2.328174|
|        5642|  6.2386e+00|   -4.993343|   -5.078528|   -5.622600|   -5.411729|   -5.255692|   -7.589552|    2.328395|
|        5643|  6.2385e+00|   -4.993895|   -5.079238|   -5.622585|   -5.412039|   -5.256190|   -7.589387|    2.328617|
|        5644|  6.2384e+00|   -4.994442|   -5.079945|   -5.622568|   -5.412346|   -5.256685|   -7.589222|    2.328839|
|        5645|  6.2383e+00|   -4.994982|   -5.080647|   -5.622547|   -5.412649|   -5.257176|   -7.589055|    2.329062|
|        5646|  6.2382e+00|   -4.995516|   -5.081344|   -5.622523|   -5.412948|   -5.257663|   -7.588889|    2.329285|
|        5647|  6.2381e+00|   -4.996043|   -5.082037|   -5.622495|   -5.413243|   -5.258145|   -7.588721|    2.329509|
|        5648|  6.2380e+00|   -4.996564|   -5.082725|   -5.622464|   -5.413535|   -5.258624|   -7.588552|    2.329734|
|        5649|  6.2379e+00|   -4.997079|   -5.083409|   -5.622431|   -5.413823|   -5.259098|   -7.588382|    2.329959|
|        5650|  6.2378e+00|   -4.997586|   -5.084087|   -5.622395|   -5.414108|   -5.259569|   -7.588213|    2.330185|
|        5651|  6.2377e+00|   -4.998088|   -5.084761|   -5.622358|   -5.414390|   -5.260036|   -7.588042|    2.330412|
|        5652|  6.2376e+00|   -4.998584|   -5.085429|   -5.622318|   -5.414668|   -5.260499|   -7.587870|    2.330639|
|        5653|  6.2375e+00|   -4.999075|   -5.086093|   -5.622277|   -5.414944|   -5.260960|   -7.587698|    2.330867|
|        5654|  6.2374e+00|   -4.999560|   -5.086752|   -5.622232|   -5.415216|   -5.261417|   -7.587525|    2.331095|
|        5655|  6.2373e+00|   -5.000037|   -5.087404|   -5.622184|   -5.415484|   -5.261869|   -7.587351|    2.331324|

----------------------------- Solver Exit -------------------------------
All convergence criteria satisfied.
+-----------------------------------------------------------------------+
|      Convergence Field     |     Value    |   Criterion  |  Converged |
+-----------------------------------------------------------------------+
|                    rms[Rho]|      -5.00004|          < -5|         Yes|
+-----------------------------------------------------------------------+
-------------------------------------------------------------------------
+-----------------------------------------------------------------------+
|        File Writing Summary       |              Filename             |
+-----------------------------------------------------------------------+
|SU2 binary restart                 |restart_flow.dat                   |
|Paraview                           |flow.vtu                           |
|Paraview surface                   |surface_flow.vtu                   |
+-----------------------------------------------------------------------+

------------------------- Solver Postprocessing -------------------------
Deleted CNumerics container.
Deleted CIntegration container.
Deleted CSolver container.
Deleted CIteration container.
Deleted CInterface container.
Deleted CGeometry container.
Deleted CFreeFormDefBox class.
Deleted CSurfaceMovement class.
Deleted CVolumetricMovement class.
Deleted CConfig container.
Deleted nInst container.
Deleted COutput class.
-------------------------------------------------------------------------

------------------------- Exit Success (SU2_CFD) ------------------------


scontrol show job 1211210
JobId=1211210 JobName=m6_aoa15
   UserId=anthonyy(3152141) GroupId=anthonyy(3152141) MCS_label=N/A
   Priority=596692 Nice=0 Account=rrg-jphickey QOS=normal
   JobState=COMPLETING Reason=None Dependency=(null)
   Requeue=0 Restarts=0 BatchFlag=1 Reboot=0 ExitCode=0:0
   RunTime=09:58:06 TimeLimit=18:00:00 TimeMin=N/A
   SubmitTime=2026-03-21T18:42:07 EligibleTime=2026-03-21T18:42:07
   AccrueTime=2026-03-21T18:42:07
   StartTime=2026-03-21T19:30:55 EndTime=2026-03-22T05:29:01 Deadline=N/A
   SuspendTime=None SecsPreSuspend=0 LastSchedEval=2026-03-21T19:30:55 Scheduler=Main
   Partition=compute AllocNode:Sid=tri-login05:426445
   ReqNodeList=(null) ExcNodeList=(null)
   NodeList=tri[0259,0476]
   BatchHost=tri0259
   NumNodes=2 NumCPUs=384 NumTasks=128 CPUs/Task=1 ReqB:S:C:T=0:0:*:*
   ReqTRES=cpu=128,mem=1534000M,node=2,billing=128
   AllocTRES=cpu=384,mem=1534000M,node=2,billing=384
   Socks/Node=* NtasksPerN:B:S:C=64:0:*:* CoreSpec=*
   MinCPUsNode=64 MinMemoryNode=0 MinTmpDiskNode=0
   Features=(null) DelayBoot=00:00:00
   OverSubscribe=NO Contiguous=0 Licenses=(null) Network=(null)
   Command=/scratch/anthonyy/reentry/orion/config/run.sh
   WorkDir=/scratch/anthonyy/reentry/orion/cases/m6_aoa15
   Comment=/opt/slurm/bin/sbatch --export=NONE --get-user-env=L --job-name m6_aoa15 --nodes 2 --ntasks-per-node 64 --cpus-per-task 1 --mem 0 --time 18:00:00 --account rrg-jphickey --output orion_%j.out --error orion_%j.err --chdir /scratch/anthonyy/reentry/orion/cases/m6_aoa15 /scratch/anthonyy/reentry/orion/config/run.sh /scratch/anthonyy/reentry/orion/config/generated/m6_aoa15.cfg 
   StdErr=/scratch/anthonyy/reentry/orion/cases/m6_aoa15/orion_1211210.err
   StdIn=/dev/null
   StdOut=/scratch/anthonyy/reentry/orion/cases/m6_aoa15/orion_1211210.out
   TresPerTask=cpu=1
   

sacct -j 1211210
JobID           JobName    Account    Elapsed  MaxVMSize     MaxRSS  SystemCPU    UserCPU ExitCode 
------------ ---------- ---------- ---------- ---------- ---------- ---------- ---------- -------- 
1211210        m6_aoa15 rrg-jphic+   09:58:06                         00:00:00   00:00:00      0:0 
1211210.bat+      batch rrg-jphic+   09:58:06                         00:00:00   00:00:00      0:0 
1211210.ext+     extern rrg-jphic+   09:58:06                         00:00:00   00:00:00      0:0 
1211210.0       SU2_CFD rrg-jphic+   09:58:02                         00:00:00   00:00:00      0:0 

