Nodes: tri[0418-0419]
Tasks: 128
NPN:   64

-------------------------------------------------------------------------
|    ___ _   _ ___                                                      |
|   / __| | | |_  )   Release 7.5.1 "Blackbird"                         |
|   \__ \ |_| |/ /                                                      |
|   |___/\___//___|   Suite (Computational Fluid Dynamics Code)         |
|                                                                       |
-------------------------------------------------------------------------
| SU2 Project Website: https://su2code.github.io                        |
|                                                                       |
| The SU2 Project is maintained by the SU2 Foundation                   |
| (http://su2foundation.org)                                            |
-------------------------------------------------------------------------
| Copyright 2012-2023, SU2 Contributors                                 |
|                                                                       |
| SU2 is free software; you can redistribute it and/or                  |
| modify it under the terms of the GNU Lesser General Public            |
| License as published by the Free Software Foundation; either          |
| version 2.1 of the License, or (at your option) any later version.    |
|                                                                       |
| SU2 is distributed in the hope that it will be useful,                |
| but WITHOUT ANY WARRANTY; without even the implied warranty of        |
| MERCHANTABILITY or FITNESS FOR A PARTICULAR PURPOSE. See the GNU      |
| Lesser General Public License for more details.                       |
|                                                                       |
| You should have received a copy of the GNU Lesser General Public      |
| License along with SU2. If not, see <http://www.gnu.org/licenses/>.   |
-------------------------------------------------------------------------

Parsing config file for zone 0

----------------- Physical Case Definition ( Zone 0 ) -------------------
Compressible RANS equations.
Turbulence model: Spalart-Allmaras-noft2
Hybrid RANS/LES: No Hybrid RANS/LES
Mach number: 6.
Angle of attack (AoA): 15 deg, and angle of sideslip (AoS): 0 deg.
Reynolds number: 6.86229e+08. Reference length 5.
No restart solution, use the values at infinity (freestream).
Non-Dimensional simulation (V=1.0, Rho=1.0, T=1.0 at the farfield).
The reference area will be computed using y(2D) or z(3D) projection.
The semi-span will be computed using the max y(3D) value.
The reference length is 0.64607 m.
Reference origin for moment evaluation is (0.25, 0, 0).
Surface(s) where the force coefficients are evaluated: ORION_SURFACE.

Input mesh file name: fine.su2

--------------- Space Numerical Integration ( Zone 0 ) ------------------
Jameson-Schmidt-Turkel scheme (2nd order in space) for the flow inviscid terms.
JST viscous coefficients (2nd & 4th): 0.5, 0.02.
The method includes a grid stretching correction (p = 0.3).
Scalar upwind solver for the turbulence model.
First order integration in space.
Average of gradients with correction (viscous flow terms).
Average of gradients with correction (viscous turbulence terms).
Gradient for upwind reconstruction: Green-Gauss.
Gradient for viscous and source terms: Green-Gauss.

--------------- Time Numerical Integration  ( Zone 0 ) ------------------
Local time stepping (steady state simulation).
Euler implicit method for the flow equations.
FGMRES is used for solving the linear system.
Using a ILU(0) preconditioning.
Convergence criteria of the linear solver: 1e-06.
Max number of linear iterations: 50.
CFL adaptation. Factor down: 0.5, factor up: 1.1,
                lower limit: 0.05, upper limit: 0.5,
                acceptable linear residual: 0.001.
Courant-Friedrichs-Lewy number:     0.05
Euler implicit time integration for the turbulence model.

------------------ Convergence Criteria  ( Zone 0 ) ---------------------
Maximum number of solver subiterations: 999999.
Begin convergence monitoring at iteration 5.
Residual minimum value: 1e-8.
Cauchy series min. value: 1e-10.
Number of Cauchy elements: 100.
Begin windowed time average at iteration 0.

-------------------- Output Information ( Zone 0 ) ----------------------
File writing frequency: 
+------------------------------------+
|                     File| Frequency|
+------------------------------------+
|                  RESTART|       150|
|                 PARAVIEW|       150|
|         SURFACE_PARAVIEW|       150|
+------------------------------------+
Writing the convergence history file every 1 inner iterations.
Writing the screen convergence history every 1 inner iterations.
The tabular file format is CSV (.csv).
Convergence history file name: history.
Forces breakdown file name: forces_breakdown.dat.
Surface file name: surface_flow.
Volume file name: flow.
Restart file name: restart_flow.

------------- Config File Boundary Information ( Zone 0 ) ---------------
+-----------------------------------------------------------------------+
|                        Marker Type|                        Marker Name|
+-----------------------------------------------------------------------+
|                          Far-field|                           FARFIELD|
+-----------------------------------------------------------------------+
|                     Heat flux wall|                      ORION_SURFACE|
+-----------------------------------------------------------------------+

-------------------- Output Preprocessing ( Zone 0 ) --------------------

WARNING: SURFACE_PRESSURE_DROP can only be computed for at least 2 surfaces (outlet, inlet, ...)

Screen output fields: INNER_ITER, WALL_TIME, MIN_DELTA_TIME, MAX_DELTA_TIME, MIN_CFL, MAX_CFL, AVG_CFL, RMS_DENSITY, RMS_MOMENTUM-X, RMS_MOMENTUM-Y, RMS_MOMENTUM-Z, RMS_ENERGY, RMS_NU_TILDE, DRAG
History output group(s): ITER, RMS_RES
Convergence field(s): RMS_DENSITY
Warning: No (valid) fields chosen for time convergence monitoring. Time convergence monitoring inactive.
Volume output fields: MACH, PRESSURE, TEMPERATURE, DENSITY, HEAT_FLUX, Y_PLUS, COORDINATES, SOLUTION

------------------- Geometry Preprocessing ( Zone 0 ) -------------------
Three dimensional problem.
62211324 grid points before partitioning.
190879888 volume elements before partitioning.
2 surface markers.
4104 boundary elements in index 0 (Marker = FARFIELD).
1824836 boundary elements in index 1 (Marker = ORION_SURFACE).
Executing the partitioning functions.
Building the graph adjacency structure.
Calling ParMETIS... graph partitioning complete (4959327 edge cuts).
Distributing ParMETIS coloring.
Rebalancing vertices.
Rebalancing volume element connectivity.
Rebalancing markers and surface elements.
66952290 vertices including ghost points. 
197997438 interior elements including halo cells. 
103171259 tetrahedra.
94500655 prisms.
325524 pyramids.
Establishing MPI communication patterns.
Setting point connectivity.
Renumbering points (Reverse Cuthill McKee Ordering).
Recomputing point connectivity.
Setting element connectivity.
Checking the numerical grid orientation.
All volume elements are correctly orientend.
All surface elements are correctly orientend.
Identifying edges and vertices.
Setting the control volume structure.
Volume of the computational grid: 535693.
Searching for the closest normal neighbors to the surfaces.
Storing a mapping from global to local point index.
Compute the surface curvature.
Max K: 132.896. Mean K: 3.9104. Standard deviation K: 7.49569.
Checking for periodicity.
Computing mesh quality statistics for the dual control volumes.
+--------------------------------------------------------------+
|           Mesh Quality Metric|        Minimum|        Maximum|
+--------------------------------------------------------------+
|    Orthogonality Angle (deg.)|        53.0661|             90|
|     CV Face Area Aspect Ratio|        1.01143|        75298.5|
|           CV Sub-Volume Ratio|        1.00029|        45.0258|
+--------------------------------------------------------------+
Finding max control volume width.
Communicating number of neighbors.
Reference area = 11.531 m^2.
Semi-span length = 2.49999 m.
Wetted area = 57.9072 m^2.
Area projection in the x-plane = 19.6343 m^2, y-plane = 11.531 m^2, z-plane = 11.531 m^2.
Max. coordinate in the x-direction = 2.575 m, y-direction = 2.49999 m, z-direction = 2.49999 m.
Min. coordinate in the x-direction = -0.71 m, y-direction = -2.49999 m, z-direction = -2.5 m.
Computing wall distances.

-------------------- Solver Preprocessing ( Zone 0 ) --------------------
Viscous flow: Computing pressure using the ideal gas law
based on the free-stream temperature and a density computed
from the Reynolds number.
Force coefficients computed using free-stream values.

-- Models:
+------------------------------------------------------------------------------+
|          Viscosity Model|        Conductivity Model|              Fluid Model|
+------------------------------------------------------------------------------+
|               SUTHERLAND|          CONSTANT_PRANDTL|             STANDARD_AIR|
+------------------------------------------------------------------------------+
-- Fluid properties:
+------------------------------------------------------------------------------+
|                  Name|    Dim. value|    Ref. value|      Unit|Non-dim. value|
+------------------------------------------------------------------------------+
|        Ref. Viscosity|     1.716e-05|       2455.73|   N.s/m^2|   6.98773e-09|
|      Sutherland Temp.|        273.15|        288.15|         K|      0.947944|
|     Sutherland Const.|         110.4|        288.15|         K|      0.383134|
+------------------------------------------------------------------------------+
|        Prandtl (Lam.)|             -|             -|         -|          0.72|
|       Prandtl (Turb.)|             -|             -|         -|           0.9|
+------------------------------------------------------------------------------+
|          Gas Constant|       287.058|       14467.7|  N.m/kg.K|     0.0198413|
|      Spec. Heat Ratio|             -|             -|         -|           1.4|
+------------------------------------------------------------------------------+
-- Initial and free-stream conditions:
+------------------------------------------------------------------------------+
|                  Name|    Dim. value|    Ref. value|      Unit|Non-dim. value|
+------------------------------------------------------------------------------+
|       Static Pressure|       99485.6|   5.01407e+06|        Pa|     0.0198413|
|               Density|       1.20274|       1.20274|    kg/m^3|             1|
|           Temperature|        288.15|        288.15|         K|             1|
|          Total Energy|   2.29123e+06|   4.16887e+06|   m^2/s^2|      0.549603|
|            Velocity-X|       1972.21|       2041.78|       m/s|      0.965926|
|            Velocity-Y|             0|       2041.78|       m/s|             0|
|            Velocity-Z|       528.452|       2041.78|       m/s|      0.258819|
|    Velocity Magnitude|       2041.78|       2041.78|       m/s|             1|
+------------------------------------------------------------------------------+
|             Viscosity|    1.7893e-05|       2455.73|   N.s/m^2|    7.2862e-09|
|          Conductivity|             -|   3.55289e+07|   W/m^2.K|             -|
|     Turb. Kin. Energy|       15633.3|   4.16887e+06|   m^2/s^2|       0.00375|
|     Spec. Dissipation|   1.05085e+08|       2041.78|       1/s|       51467.1|
+------------------------------------------------------------------------------+
|           Mach Number|             -|             -|         -|             6|
|       Reynolds Number|             -|             -|         -|   6.86229e+08|
+------------------------------------------------------------------------------+
Initialize Jacobian structure (Navier-Stokes). MG level: 0.
Initialize Jacobian structure (SA model).

------------------- Numerics Preprocessing ( Zone 0 ) -------------------

----------------- Integration Preprocessing ( Zone 0 ) ------------------

------------------- Iteration Preprocessing ( Zone 0 ) ------------------
Euler/Navier-Stokes/RANS fluid iteration.

------------------------------ Begin Solver -----------------------------

Simulation Run using the Single-zone Driver
WARNING: SU2 was not compiled for an AVX-capable architecture. Performance could be better,
         see https://su2code.github.io/docs_v7/Build-SU2-Linux-MacOS/#compiler-optimizations
+-------------------------------------------------------------------------------------------------------------------------------------------------------------------------------------+
|  Inner_Iter|   Time(sec)|      Min DT|      Max DT|     Min CFL|     Max CFL|     Avg CFL|    rms[Rho]|   rms[RhoU]|   rms[RhoV]|   rms[RhoW]|   rms[RhoE]|     rms[nu]|          CD|
+-------------------------------------------------------------------------------------------------------------------------------------------------------------------------------------+
|           0|  5.9361e+00|  1.0712e-08|  7.7145e-02|  5.5000e-02|  5.5000e-02|  5.5000e-02|   -5.257098|  -15.986873|  -17.586617|  -16.557569|   -5.501646|  -13.257682|    0.409617|
|           1|  5.4037e+00|  1.9421e-08|  8.4860e-02|  6.0500e-02|  6.0500e-02|  6.0500e-02|   -5.407583|   -5.458773|   -6.428032|   -5.969255|   -5.643686|  -13.047826|    0.433561|
|           2|  5.2306e+00|  2.1001e-08|  9.3346e-02|  6.6550e-02|  6.6550e-02|  6.6550e-02|   -5.407996|   -5.468225|   -6.436932|   -5.976862|   -5.644328|  -13.066755|    0.459766|
|           3|  5.1618e+00|  2.2585e-08|  1.0268e-01|  7.3205e-02|  7.3205e-02|  7.3205e-02|   -5.408304|   -5.477023|   -6.445945|   -5.983857|   -5.644685|  -13.084219|    0.488406|
|           4|  5.1107e+00|  2.4240e-08|  1.1295e-01|  8.0526e-02|  8.0526e-02|  8.0526e-02|   -5.408506|   -5.485419|   -6.455075|   -5.990445|   -5.644788|  -13.101229|    0.519689|
|           5|  5.0709e+00|  2.5974e-08|  1.2424e-01|  8.8578e-02|  8.8578e-02|  8.8578e-02|   -5.408597|   -5.493592|   -6.464309|   -5.996768|   -5.644651|  -13.117945|    0.553860|
|           6|  5.0400e+00|  2.7792e-08|  1.3667e-01|  9.7436e-02|  9.7436e-02|  9.7436e-02|   -5.408564|   -5.501678|   -6.473610|   -6.002931|   -5.644276|  -13.136329|    0.591195|
|           7|  5.0703e+00|  2.9695e-08|  1.5033e-01|  1.0718e-01|  1.0718e-01|  1.0718e-01|   -5.408392|   -5.509789|   -6.482909|   -6.009015|   -5.643655|  -13.155559|    0.632002|
|           8|  5.0909e+00|  3.1682e-08|  1.6537e-01|  1.1790e-01|  1.1790e-01|  1.1790e-01|   -5.408061|   -5.518018|   -6.492103|   -6.015083|   -5.642772|  -13.172474|    0.676625|
|           9|  5.1129e+00|  3.3750e-08|  1.8190e-01|  1.2969e-01|  1.2969e-01|  1.2969e-01|   -5.407546|   -5.526445|   -6.501049|   -6.021189|   -5.641604|  -13.188786|    0.725448|
|          10|  5.1478e+00|  3.5897e-08|  2.0010e-01|  1.4266e-01|  1.4266e-01|  1.4266e-01|   -5.406815|   -5.535139|   -6.509560|   -6.027372|   -5.640119|  -13.205101|    0.778899|
|          11|  5.1667e+00|  3.8117e-08|  2.2010e-01|  1.5692e-01|  1.5692e-01|  1.5692e-01|   -5.405834|   -5.544141|   -6.517416|   -6.033655|   -5.638277|  -13.221535|    0.837462|
|          12|  5.1874e+00|  4.0400e-08|  2.4212e-01|  1.7261e-01|  1.7261e-01|  1.7261e-01|   -5.404563|   -5.553499|   -6.524385|   -6.040063|   -5.636032|  -13.242622|    0.901687|
|          13|  5.1937e+00|  4.2738e-08|  2.6633e-01|  1.8987e-01|  1.8987e-01|  1.8987e-01|   -5.402959|   -5.563331|   -6.530150|   -6.046675|   -5.633332|  -13.261987|    0.972196|
|          14|  5.1994e+00|  4.5128e-08|  2.9296e-01|  2.0886e-01|  2.0886e-01|  2.0886e-01|   -5.400979|   -5.573755|   -6.534343|   -6.053563|   -5.630125|  -13.279492|    1.049693|
|          15|  5.2092e+00|  4.7556e-08|  3.2226e-01|  2.2975e-01|  2.2975e-01|  2.2975e-01|   -5.398583|   -5.584854|   -6.536619|   -6.060774|   -5.626356|  -13.296436|    1.134973|
|          16|  5.2472e+00|  5.0026e-08|  3.5448e-01|  2.5272e-01|  2.5272e-01|  2.5272e-01|   -5.395725|   -5.596700|   -6.536665|   -6.068373|   -5.621960|  -13.313960|    1.228936|
|          17|  5.2905e+00|  5.2531e-08|  3.8993e-01|  2.7800e-01|  2.7800e-01|  2.7800e-01|   -5.392351|   -5.609348|   -6.534255|   -6.076399|   -5.616861|  -13.330105|    1.332601|
|          18|  5.3234e+00|  5.5070e-08|  4.2892e-01|  3.0580e-01|  3.0580e-01|  3.0580e-01|   -5.388427|   -5.622784|   -6.529310|   -6.084866|   -5.610997|  -13.346745|    1.447118|
|          19|  5.3506e+00|  5.7648e-08|  4.7181e-01|  3.3637e-01|  3.3637e-01|  3.3637e-01|   -5.383941|   -5.636917|   -6.521875|   -6.093779|   -5.604326|  -13.363077|    1.573774|
|          20|  5.3745e+00|  6.0279e-08|  5.1900e-01|  3.7001e-01|  3.7001e-01|  3.7001e-01|   -5.378898|   -5.651508|   -6.512087|   -6.103080|   -5.596826|  -13.377549|    1.714009|
|          21|  5.4000e+00|  6.2993e-08|  5.7090e-01|  4.0701e-01|  4.0701e-01|  4.0701e-01|   -5.373375|   -5.666208|   -6.500128|   -6.112712|   -5.588551|  -13.391596|    1.869445|
|          22|  5.4340e+00|  6.5850e-08|  6.2799e-01|  4.4772e-01|  4.4772e-01|  4.4772e-01|   -5.367520|   -5.680490|   -6.486148|   -6.122535|   -5.579644|  -13.404885|    2.041916|
|          23|  5.4634e+00|  6.8947e-08|  6.9078e-01|  4.9249e-01|  4.9249e-01|  4.9249e-01|   -5.361477|   -5.693108|   -6.470156|   -6.132045|   -5.570271|  -13.417792|    2.233399|
|          24|  5.5146e+00|  7.2410e-08|  7.5986e-01|  5.0000e-01|  5.0000e-01|  5.0000e-01|   -5.355549|   -5.702741|   -6.451985|   -6.140709|   -5.560806|  -13.429084|    2.445984|
|          25|  5.5551e+00|  7.0486e-08|  7.7145e-01|  5.0000e-01|  5.0000e-01|  5.0000e-01|   -5.350228|   -5.708060|   -6.431286|   -6.147762|   -5.551873|  -13.440258|    2.665645|
|          26|  5.5872e+00|  6.8071e-08|  7.7145e-01|  5.0000e-01|  5.0000e-01|  5.0000e-01|   -5.346516|   -5.707883|   -6.410067|   -6.152631|   -5.545158|  -13.449874|    2.888662|
|          27|  5.6197e+00|  6.6262e-08|  7.7145e-01|  5.0000e-01|  5.0000e-01|  5.0000e-01|   -5.344936|   -5.702625|   -6.388725|   -6.154666|   -5.541274|  -13.457326|    3.113937|
|          28|  5.6475e+00|  6.4830e-08|  7.7145e-01|  5.0000e-01|  5.0000e-01|  5.0000e-01|   -5.345912|   -5.693558|   -6.367197|   -6.153461|   -5.540622|  -13.463427|    3.339951|
|          29|  5.6736e+00|  6.3653e-08|  7.7145e-01|  5.0000e-01|  5.0000e-01|  5.0000e-01|   -5.349816|   -5.682070|   -6.345334|   -6.148754|   -5.543560|  -13.467973|    3.564901|
|          30|  5.6980e+00|  6.2649e-08|  7.7145e-01|  5.0000e-01|  5.0000e-01|  5.0000e-01|   -5.357005|   -5.669723|   -6.322908|   -6.140706|   -5.550458|  -13.470596|    3.786765|
|          31|  5.7201e+00|  6.1769e-08|  7.7145e-01|  5.0000e-01|  5.0000e-01|  5.0000e-01|   -5.367737|   -5.657713|   -6.299670|   -6.129610|   -5.561625|  -13.471693|    4.003228|
|          32|  5.7419e+00|  6.0968e-08|  7.7145e-01|  5.0000e-01|  5.0000e-01|  5.0000e-01|   -5.382115|   -5.646873|   -6.275407|   -6.115822|   -5.577249|  -13.471218|    4.211835|
|          33|  5.7593e+00|  6.0221e-08|  7.7145e-01|  5.0000e-01|  5.0000e-01|  5.0000e-01|   -5.399902|   -5.637511|   -6.249979|   -6.099562|   -5.597219|  -13.468921|    4.410015|
|          34|  5.7797e+00|  5.9514e-08|  7.7145e-01|  5.0000e-01|  5.0000e-01|  5.0000e-01|   -5.420319|   -5.629565|   -6.223318|   -6.080877|   -5.620886|  -13.465130|    4.595108|
|          35|  5.7975e+00|  5.8836e-08|  7.7145e-01|  5.0000e-01|  5.0000e-01|  5.0000e-01|   -5.441748|   -5.622676|   -6.195461|   -6.059727|   -5.646668|  -13.460057|    4.764392|
|          36|  5.8164e+00|  5.8179e-08|  7.7145e-01|  5.0000e-01|  5.0000e-01|  5.0000e-01|   -5.461524|   -5.616458|   -6.166567|   -6.036274|   -5.671636|  -13.453720|    4.915119|
|          37|  5.8314e+00|  5.7540e-08|  7.7145e-01|  5.0000e-01|  5.0000e-01|  5.0000e-01|   -5.476004|   -5.610570|   -6.136961|   -6.010962|   -5.691276|  -13.446604|    5.044551|
|          38|  5.8534e+00|  5.6915e-08|  7.7145e-01|  5.0000e-01|  5.0000e-01|  5.0000e-01|   -5.481408|   -5.604895|   -6.107129|   -5.984542|   -5.700231|  -13.439251|    5.150008|
|          39|  5.8724e+00|  5.6303e-08|  7.7145e-01|  5.0000e-01|  5.0000e-01|  5.0000e-01|   -5.475274|   -5.599467|   -6.077689|   -5.957917|   -5.694339|  -13.431834|    5.228920|
|          40|  5.8860e+00|  5.5702e-08|  7.7145e-01|  5.0000e-01|  5.0000e-01|  5.0000e-01|   -5.457745|   -5.594501|   -6.049343|   -5.932127|   -5.673052|  -13.424763|    5.278926|
|          41|  5.8988e+00|  5.5113e-08|  7.7145e-01|  5.0000e-01|  5.0000e-01|  5.0000e-01|   -5.431459|   -5.590439|   -6.022899|   -5.908320|   -5.639724|  -13.418538|    5.298113|
|          42|  5.9135e+00|  5.4534e-08|  7.7145e-01|  5.0000e-01|  5.0000e-01|  5.0000e-01|   -5.400059|   -5.587812|   -5.999237|   -5.887363|   -5.599367|  -13.413653|    5.285434|
|          43|  5.9272e+00|  5.3967e-08|  7.7145e-01|  5.0000e-01|  5.0000e-01|  5.0000e-01|   -5.366951|   -5.587152|   -5.979024|   -5.869893|   -5.556609|  -13.411020|    5.241446|
|          44|  5.9381e+00|  5.3410e-08|  7.7145e-01|  5.0000e-01|  5.0000e-01|  5.0000e-01|   -5.334931|   -5.588782|   -5.962553|   -5.855927|   -5.515207|  -13.408934|    5.168506|
|          45|  5.9458e+00|  5.2864e-08|  7.7145e-01|  5.0000e-01|  5.0000e-01|  5.0000e-01|   -5.306169|   -5.592616|   -5.949514|   -5.845187|   -5.478052|  -13.405534|    5.070281|
|          46|  5.9553e+00|  5.2329e-08|  7.7145e-01|  5.0000e-01|  5.0000e-01|  5.0000e-01|   -5.281706|   -5.598047|   -5.939667|   -5.838287|   -5.446412|  -13.401118|    4.950084|
|          47|  5.9640e+00|  5.1805e-08|  7.7145e-01|  5.0000e-01|  5.0000e-01|  5.0000e-01|   -5.261412|   -5.604714|   -5.934358|   -5.837507|   -5.419902|  -13.395550|    4.809796|
|          48|  5.9705e+00|  5.1292e-08|  7.7145e-01|  5.0000e-01|  5.0000e-01|  5.0000e-01|   -5.245285|   -5.612855|   -5.935272|   -5.841832|   -5.398505|  -13.388255|    4.649970|
|          49|  5.9779e+00|  5.0790e-08|  7.7145e-01|  5.0000e-01|  5.0000e-01|  5.0000e-01|   -5.233960|   -5.621440|   -5.939571|   -5.847252|   -5.383263|  -13.378595|    4.471680|
|          50|  5.9854e+00|  5.0299e-08|  7.7145e-01|  5.0000e-01|  5.0000e-01|  5.0000e-01|   -5.227734|   -5.628119|   -5.943152|   -5.850171|   -5.374790|  -13.366248|    4.278182|
|          51|  5.9920e+00|  4.9818e-08|  7.7145e-01|  5.0000e-01|  5.0000e-01|  5.0000e-01|   -5.225675|   -5.632376|   -5.943793|   -5.847859|   -5.372187|  -13.351284|    4.073117|
|          52|  5.9980e+00|  4.9348e-08|  7.7145e-01|  5.0000e-01|  5.0000e-01|  5.0000e-01|   -5.226351|   -5.634501|   -5.939704|   -5.838206|   -5.373953|  -13.334442|    3.859928|
|          53|  6.0042e+00|  4.8888e-08|  7.7145e-01|  5.0000e-01|  5.0000e-01|  5.0000e-01|   -5.228032|   -5.634984|   -5.929514|   -5.820331|   -5.378103|  -13.317408|    3.641819|
|          54|  6.0113e+00|  4.8439e-08|  7.7145e-01|  5.0000e-01|  5.0000e-01|  5.0000e-01|   -5.228840|   -5.634024|   -5.912595|   -5.795077|   -5.382155|  -13.301656|    3.421914|
|          55|  6.0196e+00|  4.8000e-08|  7.7145e-01|  5.0000e-01|  5.0000e-01|  5.0000e-01|   -5.227103|   -5.631203|   -5.889381|   -5.765192|   -5.383425|  -13.288394|    3.203377|
|          56|  6.0270e+00|  4.7571e-08|  7.7145e-01|  5.0000e-01|  5.0000e-01|  5.0000e-01|   -5.221797|   -5.625347|   -5.861422|   -5.734191|   -5.379675|  -13.278795|    2.989486|
|          57|  6.0343e+00|  4.7151e-08|  7.7145e-01|  5.0000e-01|  5.0000e-01|  5.0000e-01|   -5.212914|   -5.614698|   -5.831057|   -5.705351|   -5.369963|  -13.274287|    2.783643|
|          58|  6.0400e+00|  4.6742e-08|  7.7145e-01|  5.0000e-01|  5.0000e-01|  5.0000e-01|   -5.201506|   -5.597623|   -5.800945|   -5.681221|   -5.355148|  -13.275326|    2.589307|
|          59|  6.0449e+00|  4.6341e-08|  7.7145e-01|  5.0000e-01|  5.0000e-01|  5.0000e-01|   -5.189336|   -5.573770|   -5.773687|   -5.663214|   -5.337584|  -13.273920|    2.409824|
|          60|  6.0504e+00|  4.5950e-08|  7.7145e-01|  5.0000e-01|  5.0000e-01|  5.0000e-01|   -5.178634|   -5.545146|   -5.751212|   -5.651814|   -5.320678|  -13.267453|    2.248075|
|          61|  6.0565e+00|  4.5568e-08|  7.7145e-01|  5.0000e-01|  5.0000e-01|  5.0000e-01|   -5.171032|   -5.514835|   -5.734610|   -5.646587|   -5.307253|  -13.255014|    2.106463|
|          62|  6.0617e+00|  4.5194e-08|  7.7145e-01|  5.0000e-01|  5.0000e-01|  5.0000e-01|   -5.167387|   -5.486236|   -5.724294|   -5.646205|   -5.299129|  -13.236603|    1.986866|
|          63|  6.0679e+00|  4.4829e-08|  7.7145e-01|  5.0000e-01|  5.0000e-01|  5.0000e-01|   -5.167679|   -5.462447|   -5.719917|   -5.648444|   -5.296952|  -13.213420|    1.890646|
|          64|  6.0723e+00|  4.4472e-08|  7.7145e-01|  5.0000e-01|  5.0000e-01|  5.0000e-01|   -5.170764|   -5.445899|   -5.720399|   -5.650521|   -5.299775|  -13.188133|    1.818650|
|          65|  6.0765e+00|  4.4123e-08|  7.7145e-01|  5.0000e-01|  5.0000e-01|  5.0000e-01|   -5.174585|   -5.437894|   -5.724027|   -5.649865|   -5.305409|  -13.163651|    1.771288|
|          66|  6.0800e+00|  4.3781e-08|  7.7145e-01|  5.0000e-01|  5.0000e-01|  5.0000e-01|   -5.176585|   -5.438783|   -5.728542|   -5.644989|   -5.310450|  -13.142502|    1.748604|
|          67|  6.0838e+00|  4.3447e-08|  7.7145e-01|  5.0000e-01|  5.0000e-01|  5.0000e-01|   -5.174413|   -5.448052|   -5.731582|   -5.636086|   -5.311009|  -13.126692|    1.750263|
|          68|  6.0885e+00|  4.3121e-08|  7.7145e-01|  5.0000e-01|  5.0000e-01|  5.0000e-01|   -5.166842|   -5.464213|   -5.731433|   -5.624935|   -5.304271|  -13.117924|    1.775514|
|          69|  6.0939e+00|  4.2801e-08|  7.7145e-01|  5.0000e-01|  5.0000e-01|  5.0000e-01|   -5.154427|   -5.484657|   -5.727772|   -5.614167|   -5.290110|  -13.118467|    1.823153|
|          70|  6.0980e+00|  4.2489e-08|  7.7145e-01|  5.0000e-01|  5.0000e-01|  5.0000e-01|   -5.139553|   -5.505594|   -5.721818|   -5.606219|   -5.271603|  -13.126539|    1.891409|
|          71|  6.1014e+00|  4.2182e-08|  7.7145e-01|  5.0000e-01|  5.0000e-01|  5.0000e-01|   -5.125174|   -5.522871|   -5.715605|   -5.602769|   -5.253221|  -13.139147|    1.977723|
|          72|  6.1047e+00|  4.1883e-08|  7.7145e-01|  5.0000e-01|  5.0000e-01|  5.0000e-01|   -5.113790|   -5.533524|   -5.711283|   -5.604596|   -5.238810|  -13.153743|    2.079790|
|          73|  6.1087e+00|  4.1589e-08|  7.7145e-01|  5.0000e-01|  5.0000e-01|  5.0000e-01|   -5.107328|   -5.537133|   -5.710493|   -5.611571|   -5.231184|  -13.166187|    2.195330|
|          74|  6.1127e+00|  4.1302e-08|  7.7145e-01|  5.0000e-01|  5.0000e-01|  5.0000e-01|   -5.106986|   -5.535562|   -5.713965|   -5.622702|   -5.231809|  -13.172185|    2.322025|
|          75|  6.1158e+00|  4.1020e-08|  7.7145e-01|  5.0000e-01|  5.0000e-01|  5.0000e-01|   -5.112860|   -5.531762|   -5.721576|   -5.636170|   -5.240798|  -13.169443|    2.457130|
|          76|  6.1198e+00|  4.0743e-08|  7.7145e-01|  5.0000e-01|  5.0000e-01|  5.0000e-01|   -5.124113|   -5.528260|   -5.732292|   -5.649498|   -5.257108|  -13.158574|    2.597659|
|          77|  6.1230e+00|  4.0472e-08|  7.7145e-01|  5.0000e-01|  5.0000e-01|  5.0000e-01|   -5.139108|   -5.526465|   -5.744337|   -5.660022|   -5.278496|  -13.143164|    2.740635|
|          78|  6.1273e+00|  4.0207e-08|  7.7145e-01|  5.0000e-01|  5.0000e-01|  5.0000e-01|   -5.155542|   -5.526733|   -5.755547|   -5.665803|   -5.301514|  -13.126192|    2.883201|
|          79|  6.1305e+00|  3.9947e-08|  7.7145e-01|  5.0000e-01|  5.0000e-01|  5.0000e-01|   -5.170971|   -5.529039|   -5.763931|   -5.666569|   -5.322128|  -13.110426|    3.022620|
|          80|  6.1339e+00|  3.9691e-08|  7.7145e-01|  5.0000e-01|  5.0000e-01|  5.0000e-01|   -5.183211|   -5.533203|   -5.768180|   -5.663996|   -5.336334|  -13.097956|    3.156298|
|          81|  6.1374e+00|  3.9441e-08|  7.7145e-01|  5.0000e-01|  5.0000e-01|  5.0000e-01|   -5.190733|   -5.538437|   -5.768365|   -5.660780|   -5.341735|  -13.089924|    3.281825|
|          82|  6.1401e+00|  3.9195e-08|  7.7145e-01|  5.0000e-01|  5.0000e-01|  5.0000e-01|   -5.193387|   -5.543902|   -5.766132|   -5.659488|   -5.339040|  -13.088156|    3.396982|
|          83|  6.1424e+00|  3.8953e-08|  7.7145e-01|  5.0000e-01|  5.0000e-01|  5.0000e-01|   -5.192820|   -5.549106|   -5.764089|   -5.661838|   -5.332194|  -13.093873|    3.499751|
|          84|  6.1445e+00|  3.8717e-08|  7.7145e-01|  5.0000e-01|  5.0000e-01|  5.0000e-01|   -5.191932|   -5.554015|   -5.764570|   -5.668516|   -5.326450|  -13.104290|    3.588320|
|          85|  6.1463e+00|  3.8484e-08|  7.7145e-01|  5.0000e-01|  5.0000e-01|  5.0000e-01|   -5.193202|   -5.558835|   -5.769045|   -5.679199|   -5.325475|  -13.115999|    3.661093|
|          86|  6.1479e+00|  3.8256e-08|  7.7145e-01|  5.0000e-01|  5.0000e-01|  5.0000e-01|   -5.198201|   -5.563960|   -5.777960|   -5.692727|   -5.331134|  -13.126365|    3.716710|
|          87|  6.1503e+00|  3.8031e-08|  7.7145e-01|  5.0000e-01|  5.0000e-01|  5.0000e-01|   -5.207572|   -5.569411|   -5.790783|   -5.707198|   -5.343833|  -13.134848|    3.754113|
|          88|  6.1528e+00|  3.7811e-08|  7.7145e-01|  5.0000e-01|  5.0000e-01|  5.0000e-01|   -5.220545|   -5.575310|   -5.806211|   -5.720309|   -5.362262|  -13.139820|    3.772624|
|          89|  6.1542e+00|  3.7594e-08|  7.7145e-01|  5.0000e-01|  5.0000e-01|  5.0000e-01|   -5.235270|   -5.582041|   -5.822465|   -5.730040|   -5.383734|  -13.140810|    3.772027|
|          90|  6.1558e+00|  3.7382e-08|  7.7145e-01|  5.0000e-01|  5.0000e-01|  5.0000e-01|   -5.249313|   -5.589943|   -5.837546|   -5.735276|   -5.404706|  -13.138438|    3.752797|
|          91|  6.1583e+00|  3.7172e-08|  7.7145e-01|  5.0000e-01|  5.0000e-01|  5.0000e-01|   -5.260252|   -5.599209|   -5.849659|   -5.736213|   -5.421466|  -13.133864|    3.716174|
|          92|  6.1611e+00|  3.6967e-08|  7.7145e-01|  5.0000e-01|  5.0000e-01|  5.0000e-01|   -5.266360|   -5.609867|   -5.857650|   -5.734144|   -5.431189|  -13.128606|    3.664232|
|          93|  6.1632e+00|  3.6764e-08|  7.7145e-01|  5.0000e-01|  5.0000e-01|  5.0000e-01|   -5.267199|   -5.621707|   -5.861303|   -5.730924|   -5.433030|  -13.124132|    3.599520|
|          94|  6.1651e+00|  3.6566e-08|  7.7145e-01|  5.0000e-01|  5.0000e-01|  5.0000e-01|   -5.263685|   -5.634121|   -5.861350|   -5.728409|   -5.428297|  -13.121632|    3.524862|
|          95|  6.1695e+00|  3.6370e-08|  7.7145e-01|  5.0000e-01|  5.0000e-01|  5.0000e-01|   -5.257589|   -5.645956|   -5.859193|   -5.728086|   -5.419657|  -13.121860|    3.443283|
|          96|  6.1729e+00|  3.6177e-08|  7.7145e-01|  5.0000e-01|  5.0000e-01|  5.0000e-01|   -5.251043|   -5.655674|   -5.856525|   -5.730940|   -5.410232|  -13.125155|    3.357917|
|          97|  6.1767e+00|  3.5988e-08|  7.7145e-01|  5.0000e-01|  5.0000e-01|  5.0000e-01|   -5.246088|   -5.661662|   -5.854923|   -5.737403|   -5.402801|  -13.132015|    3.271895|
|          98|  6.1784e+00|  3.5802e-08|  7.7145e-01|  5.0000e-01|  5.0000e-01|  5.0000e-01|   -5.244428|   -5.662688|   -5.855593|   -5.747353|   -5.399565|  -13.142433|    3.188200|
|          99|  6.1794e+00|  3.5618e-08|  7.7145e-01|  5.0000e-01|  5.0000e-01|  5.0000e-01|   -5.247261|   -5.658577|   -5.859232|   -5.760103|   -5.401980|  -13.155611|    3.109547|
|         100|  6.1809e+00|  3.5438e-08|  7.7145e-01|  5.0000e-01|  5.0000e-01|  5.0000e-01|   -5.255249|   -5.650353|   -5.865958|   -5.774381|   -5.410844|  -13.169296|    3.038338|
|         101|  6.1829e+00|  3.5260e-08|  7.7145e-01|  5.0000e-01|  5.0000e-01|  5.0000e-01|   -5.268159|   -5.639933|   -5.875351|   -5.788412|   -5.425875|  -13.180896|    2.976628|
|         102|  6.1846e+00|  3.5085e-08|  7.7145e-01|  5.0000e-01|  5.0000e-01|  5.0000e-01|   -5.284994|   -5.629457|   -5.886602|   -5.800189|   -5.446006|  -13.188254|    2.926111|
|         103|  6.1864e+00|  3.4912e-08|  7.7145e-01|  5.0000e-01|  5.0000e-01|  5.0000e-01|   -5.304039|   -5.620648|   -5.898564|   -5.807907|   -5.469357|  -13.190278|    2.888109|
|         104|  6.1873e+00|  3.4742e-08|  7.7145e-01|  5.0000e-01|  5.0000e-01|  5.0000e-01|   -5.322888|   -5.614695|   -5.909864|   -5.810583|   -5.493101|  -13.187160|    2.863555|
|         105|  6.1907e+00|  3.4575e-08|  7.7145e-01|  5.0000e-01|  5.0000e-01|  5.0000e-01|   -5.338638|   -5.612286|   -5.919105|   -5.808429|   -5.513530|  -13.180027|    2.852982|
|         106|  6.1931e+00|  3.4410e-08|  7.7145e-01|  5.0000e-01|  5.0000e-01|  5.0000e-01|   -5.348513|   -5.613718|   -5.925190|   -5.802719|   -5.526790|  -13.170485|    2.856510|
|         107|  6.1949e+00|  3.4247e-08|  7.7145e-01|  5.0000e-01|  5.0000e-01|  5.0000e-01|   -5.350784|   -5.618993|   -5.927604|   -5.795243|   -5.530285|  -13.160119|    2.873838|
|         108|  6.1972e+00|  3.4087e-08|  7.7145e-01|  5.0000e-01|  5.0000e-01|  5.0000e-01|   -5.345499|   -5.627855|   -5.926592|   -5.787790|   -5.523968|  -13.150047|    2.904227|
|         109|  6.1988e+00|  3.3929e-08|  7.7145e-01|  5.0000e-01|  5.0000e-01|  5.0000e-01|   -5.334435|   -5.639787|   -5.923006|   -5.781762|   -5.510332|  -13.141133|    2.946339|
|         110|  6.2013e+00|  3.3773e-08|  7.7145e-01|  5.0000e-01|  5.0000e-01|  5.0000e-01|   -5.320267|   -5.653841|   -5.918004|   -5.778056|   -5.493085|  -13.133943|    2.998392|
|         111|  6.2035e+00|  3.3620e-08|  7.7145e-01|  5.0000e-01|  5.0000e-01|  5.0000e-01|   -5.305559|   -5.668682|   -5.912714|   -5.777067|   -5.475592|  -13.128798|    3.058462|
|         112|  6.2049e+00|  3.3469e-08|  7.7145e-01|  5.0000e-01|  5.0000e-01|  5.0000e-01|   -5.292285|   -5.682641|   -5.908048|   -5.778806|   -5.460241|  -13.125815|    3.124523|
|         113|  6.2066e+00|  3.3319e-08|  7.7145e-01|  5.0000e-01|  5.0000e-01|  5.0000e-01|   -5.281705|   -5.693813|   -5.904592|   -5.782948|   -5.448403|  -13.124965|    3.194481|
|         114|  6.2079e+00|  3.3172e-08|  7.7145e-01|  5.0000e-01|  5.0000e-01|  5.0000e-01|   -5.274535|   -5.700399|   -5.902648|   -5.788902|   -5.440756|  -13.126109|    3.266232|
|         115|  6.2095e+00|  3.3027e-08|  7.7145e-01|  5.0000e-01|  5.0000e-01|  5.0000e-01|   -5.271224|   -5.701232|   -5.902255|   -5.795847|   -5.437696|  -13.129928|    3.337733|
|         116|  6.2105e+00|  3.2884e-08|  7.7145e-01|  5.0000e-01|  5.0000e-01|  5.0000e-01|   -5.271977|   -5.696265|   -5.903221|   -5.802764|   -5.439362|  -13.136343|    3.407051|
|         117|  6.2116e+00|  3.2742e-08|  7.7145e-01|  5.0000e-01|  5.0000e-01|  5.0000e-01|   -5.276747|   -5.686624|   -5.905130|   -5.808529|   -5.445665|  -13.143553|    3.472386|
|         118|  6.2138e+00|  3.2603e-08|  7.7145e-01|  5.0000e-01|  5.0000e-01|  5.0000e-01|   -5.284930|   -5.674149|   -5.907449|   -5.811971|   -5.455771|  -13.149448|    3.532098|
|         119|  6.2159e+00|  3.2465e-08|  7.7145e-01|  5.0000e-01|  5.0000e-01|  5.0000e-01|   -5.295450|   -5.660973|   -5.909667|   -5.812188|   -5.468441|  -13.152237|    3.584728|
|         120|  6.2171e+00|  3.2329e-08|  7.7145e-01|  5.0000e-01|  5.0000e-01|  5.0000e-01|   -5.306901|   -5.648804|   -5.911268|   -5.808785|   -5.482149|  -13.150773|    3.629033|
|         121|  6.2177e+00|  3.2195e-08|  7.7145e-01|  5.0000e-01|  5.0000e-01|  5.0000e-01|   -5.317550|   -5.638791|   -5.911725|   -5.801951|   -5.494969|  -13.144672|    3.664013|
|         122|  6.2187e+00|  3.2063e-08|  7.7145e-01|  5.0000e-01|  5.0000e-01|  5.0000e-01|   -5.325509|   -5.631692|   -5.910579|   -5.792437|   -5.504735|  -13.134305|    3.688943|
|         123|  6.2206e+00|  3.1932e-08|  7.7145e-01|  5.0000e-01|  5.0000e-01|  5.0000e-01|   -5.329070|   -5.628024|   -5.907493|   -5.781352|   -5.509384|  -13.120586|    3.703387|
|         124|  6.2249e+00|  3.1803e-08|  7.7145e-01|  5.0000e-01|  5.0000e-01|  5.0000e-01|   -5.327169|   -5.628121|   -5.902337|   -5.769946|   -5.507526|  -13.104817|    3.707215|
|         125|  6.2274e+00|  3.1675e-08|  7.7145e-01|  5.0000e-01|  5.0000e-01|  5.0000e-01|   -5.319759|   -5.632110|   -5.895269|   -5.759410|   -5.498966|  -13.088402|    3.700606|
|         126|  6.2302e+00|  3.1549e-08|  7.7145e-01|  5.0000e-01|  5.0000e-01|  5.0000e-01|   -5.307848|   -5.639828|   -5.886749|   -5.750720|   -5.484812|  -13.072581|    3.684052|
|         127|  6.2330e+00|  3.1425e-08|  7.7145e-01|  5.0000e-01|  5.0000e-01|  5.0000e-01|   -5.293182|   -5.650657|   -5.877500|   -5.744581|   -5.467099|  -13.058328|    3.658356|
|         128|  6.2351e+00|  3.1302e-08|  7.7145e-01|  5.0000e-01|  5.0000e-01|  5.0000e-01|   -5.277673|   -5.663350|   -5.868398|   -5.741365|   -5.448133|  -13.046256|    3.624617|
|         129|  6.2364e+00|  3.1181e-08|  7.7145e-01|  5.0000e-01|  5.0000e-01|  5.0000e-01|   -5.263077|   -5.676053|   -5.860363|   -5.741134|   -5.430079|  -13.036493|    3.584118|
|         130|  6.2379e+00|  3.1061e-08|  7.7145e-01|  5.0000e-01|  5.0000e-01|  5.0000e-01|   -5.250789|   -5.686500|   -5.854241|   -5.743618|   -5.414687|  -13.033113|    3.538275|
|         131|  6.2396e+00|  3.0942e-08|  7.7145e-01|  5.0000e-01|  5.0000e-01|  5.0000e-01|   -5.242134|   -5.692579|   -5.850671|   -5.748225|   -5.403692|  -13.037022|    3.488607|
|         132|  6.2408e+00|  3.0825e-08|  7.7145e-01|  5.0000e-01|  5.0000e-01|  5.0000e-01|   -5.237910|   -5.693173|   -5.849880|   -5.754034|   -5.398200|  -13.046219|    3.436677|
|         133|  6.2425e+00|  3.0709e-08|  7.7145e-01|  5.0000e-01|  5.0000e-01|  5.0000e-01|   -5.238329|   -5.688603|   -5.851735|   -5.759877|   -5.398595|  -13.058498|    3.384051|
|         134|  6.2454e+00|  3.0595e-08|  7.7145e-01|  5.0000e-01|  5.0000e-01|  5.0000e-01|   -5.243321|   -5.680067|   -5.855738|   -5.764477|   -5.404775|  -13.071338|    3.332245|
|         135|  6.2474e+00|  3.0482e-08|  7.7145e-01|  5.0000e-01|  5.0000e-01|  5.0000e-01|   -5.252152|   -5.669723|   -5.861123|   -5.766791|   -5.415859|  -13.082089|    3.282687|
|         136|  6.2490e+00|  3.0370e-08|  7.7145e-01|  5.0000e-01|  5.0000e-01|  5.0000e-01|   -5.263550|   -5.659753|   -5.866903|   -5.766291|   -5.430446|  -13.088785|    3.236679|
|         137|  6.2507e+00|  3.0260e-08|  7.7145e-01|  5.0000e-01|  5.0000e-01|  5.0000e-01|   -5.275836|   -5.651676|   -5.871987|   -5.763087|   -5.446530|  -13.090511|    3.195367|
|         138|  6.2518e+00|  3.0151e-08|  7.7145e-01|  5.0000e-01|  5.0000e-01|  5.0000e-01|   -5.287037|   -5.646404|   -5.875364|   -5.757855|   -5.461552|  -13.087109|    3.159722|
|         139|  6.2537e+00|  3.0043e-08|  7.7145e-01|  5.0000e-01|  5.0000e-01|  5.0000e-01|   -5.295186|   -5.644376|   -5.876321|   -5.751644|   -5.472753|  -13.079401|    3.130532|
|         140|  6.2549e+00|  2.9936e-08|  7.7145e-01|  5.0000e-01|  5.0000e-01|  5.0000e-01|   -5.298802|   -5.645676|   -5.874628|   -5.745623|   -5.477872|  -13.068773|    3.108386|
|         141|  6.2563e+00|  2.9830e-08|  7.7145e-01|  5.0000e-01|  5.0000e-01|  5.0000e-01|   -5.297355|   -5.650086|   -5.870591|   -5.740852|   -5.475903|  -13.056896|    3.093672|
|         142|  6.2583e+00|  2.9726e-08|  7.7145e-01|  5.0000e-01|  5.0000e-01|  5.0000e-01|   -5.291395|   -5.656959|   -5.865004|   -5.738144|   -5.467484|  -13.045202|    3.086575|
|         143|  6.2599e+00|  2.9623e-08|  7.7145e-01|  5.0000e-01|  5.0000e-01|  5.0000e-01|   -5.282358|   -5.665242|   -5.858971|   -5.737959|   -5.454720|  -13.034941|    3.087079|
|         144|  6.2612e+00|  2.9520e-08|  7.7145e-01|  5.0000e-01|  5.0000e-01|  5.0000e-01|   -5.272171|   -5.673634|   -5.853680|   -5.740416|   -5.440421|  -13.026645|    3.094968|
|         145|  6.2629e+00|  2.9419e-08|  7.7145e-01|  5.0000e-01|  5.0000e-01|  5.0000e-01|   -5.262695|   -5.680722|   -5.850169|   -5.745249|   -5.427172|  -13.021968|    3.109840|
|         146|  6.2639e+00|  2.9319e-08|  7.7145e-01|  5.0000e-01|  5.0000e-01|  5.0000e-01|   -5.255537|   -5.685295|   -5.849202|   -5.751800|   -5.417108|  -13.024319|    3.131116|
|         147|  6.2644e+00|  2.9220e-08|  7.7145e-01|  5.0000e-01|  5.0000e-01|  5.0000e-01|   -5.252071|   -5.686805|   -5.851055|   -5.759091|   -5.412038|  -13.032160|    3.158051|
|         148|  6.2651e+00|  2.9123e-08|  7.7145e-01|  5.0000e-01|  5.0000e-01|  5.0000e-01|   -5.252747|   -5.685367|   -5.855496|   -5.765875|   -5.412504|  -13.043624|    3.189754|
|         149|  6.2661e+00|  2.9026e-08|  7.7145e-01|  5.0000e-01|  5.0000e-01|  5.0000e-01|   -5.257500|   -5.681555|   -5.861868|   -5.770906|   -5.418347|  -13.056761|    3.225260|
|         150|  6.2674e+00|  2.8930e-08|  7.7145e-01|  5.0000e-01|  5.0000e-01|  5.0000e-01|   -5.265549|   -5.676534|   -5.869221|   -5.773253|   -5.428539|  -13.069046|    3.263556|
+-----------------------------------------------------------------------+
|        File Writing Summary       |              Filename             |
+-----------------------------------------------------------------------+
|SU2 binary restart                 |restart_flow.dat                   |
|Paraview                           |flow.vtu                           |
|Paraview surface                   |surface_flow.vtu                   |
+-----------------------------------------------------------------------+
+-------------------------------------------------------------------------------------------------------------------------------------------------------------------------------------+
|  Inner_Iter|   Time(sec)|      Min DT|      Max DT|     Min CFL|     Max CFL|     Avg CFL|    rms[Rho]|   rms[RhoU]|   rms[RhoV]|   rms[RhoW]|   rms[RhoE]|     rms[nu]|          CD|
+-------------------------------------------------------------------------------------------------------------------------------------------------------------------------------------+
|         151|  6.4049e+00|  2.8835e-08|  7.7145e-01|  5.0000e-01|  5.0000e-01|  5.0000e-01|   -5.275581|   -5.671699|   -5.876427|   -5.772590|   -5.441543|  -13.078323|    3.303605|
|         152|  6.4093e+00|  2.8741e-08|  7.7145e-01|  5.0000e-01|  5.0000e-01|  5.0000e-01|   -5.285974|   -5.668105|   -5.882340|   -5.769234|   -5.455376|  -13.083133|    3.344360|
|         153|  6.4125e+00|  2.8648e-08|  7.7145e-01|  5.0000e-01|  5.0000e-01|  5.0000e-01|   -5.294962|   -5.666438|   -5.885979|   -5.764000|   -5.467749|  -13.082943|    3.384781|
|         154|  6.4141e+00|  2.8556e-08|  7.7145e-01|  5.0000e-01|  5.0000e-01|  5.0000e-01|   -5.300920|   -5.667027|   -5.886748|   -5.757973|   -5.476400|  -13.078205|    3.423860|
|         155|  6.4152e+00|  2.8465e-08|  7.7145e-01|  5.0000e-01|  5.0000e-01|  5.0000e-01|   -5.302757|   -5.669893|   -5.884587|   -5.752260|   -5.479667|  -13.070011|    3.460656|
|         156|  6.4168e+00|  2.8375e-08|  7.7145e-01|  5.0000e-01|  5.0000e-01|  5.0000e-01|   -5.300254|   -5.674788|   -5.879962|   -5.747805|   -5.477029|  -13.059849|    3.494315|
|         157|  6.4176e+00|  2.8286e-08|  7.7145e-01|  5.0000e-01|  5.0000e-01|  5.0000e-01|   -5.294068|   -5.681061|   -5.873745|   -5.745279|   -5.469196|  -13.049113|    3.524095|
|         158|  6.4208e+00|  2.8198e-08|  7.7145e-01|  5.0000e-01|  5.0000e-01|  5.0000e-01|   -5.285468|   -5.687652|   -5.867021|   -5.745007|   -5.457884|  -13.038980|    3.549374|
|         159|  6.4222e+00|  2.8110e-08|  7.7145e-01|  5.0000e-01|  5.0000e-01|  5.0000e-01|   -5.276058|   -5.693313|   -5.860884|   -5.746987|   -5.445301|  -13.030144|    3.569669|
|         160|  6.4237e+00|  2.8024e-08|  7.7145e-01|  5.0000e-01|  5.0000e-01|  5.0000e-01|   -5.267352|   -5.696803|   -5.856242|   -5.750874|   -5.433502|  -13.022672|    3.584636|
|         161|  6.4237e+00|  2.7938e-08|  7.7145e-01|  5.0000e-01|  5.0000e-01|  5.0000e-01|   -5.260548|   -5.697184|   -5.853746|   -5.755976|   -5.424063|  -13.020236|    3.594081|
|         162|  6.4239e+00|  2.7853e-08|  7.7145e-01|  5.0000e-01|  5.0000e-01|  5.0000e-01|   -5.256836|   -5.694230|   -5.853686|   -5.761342|   -5.418591|  -13.023435|    3.597954|
|         163|  6.4241e+00|  2.7769e-08|  7.7145e-01|  5.0000e-01|  5.0000e-01|  5.0000e-01|   -5.256729|   -5.688420|   -5.855864|   -5.765834|   -5.417789|  -13.030755|    3.596350|
|         164|  6.4238e+00|  2.7686e-08|  7.7145e-01|  5.0000e-01|  5.0000e-01|  5.0000e-01|   -5.260184|   -5.680712|   -5.859710|   -5.768394|   -5.421637|  -13.040382|    3.589497|
|         165|  6.4233e+00|  2.7603e-08|  7.7145e-01|  5.0000e-01|  5.0000e-01|  5.0000e-01|   -5.266564|   -5.672331|   -5.864392|   -5.768276|   -5.429291|  -13.050098|    3.577747|
|         166|  6.4223e+00|  2.7521e-08|  7.7145e-01|  5.0000e-01|  5.0000e-01|  5.0000e-01|   -5.274690|   -5.664699|   -5.868951|   -5.765299|   -5.439391|  -13.057885|    3.561563|
|         167|  6.4220e+00|  2.7440e-08|  7.7145e-01|  5.0000e-01|  5.0000e-01|  5.0000e-01|   -5.283068|   -5.658884|   -5.872410|   -5.759842|   -5.450189|  -13.062177|    3.541505|
|         168|  6.4215e+00|  2.7360e-08|  7.7145e-01|  5.0000e-01|  5.0000e-01|  5.0000e-01|   -5.290050|   -5.655564|   -5.873920|   -5.752709|   -5.459645|  -13.062150|    3.518208|
|         169|  6.4211e+00|  2.7281e-08|  7.7145e-01|  5.0000e-01|  5.0000e-01|  5.0000e-01|   -5.294098|   -5.655082|   -5.872939|   -5.744922|   -5.465712|  -13.057750|    3.492348|
|         170|  6.4207e+00|  2.7202e-08|  7.7145e-01|  5.0000e-01|  5.0000e-01|  5.0000e-01|   -5.294148|   -5.657497|   -5.869350|   -5.737522|   -5.466838|  -13.049545|    3.464619|
|         171|  6.4201e+00|  2.7124e-08|  7.7145e-01|  5.0000e-01|  5.0000e-01|  5.0000e-01|   -5.289915|   -5.662603|   -5.863488|   -5.731395|   -5.462440|  -13.038629|    3.435725|
|         172|  6.4196e+00|  2.7047e-08|  7.7145e-01|  5.0000e-01|  5.0000e-01|  5.0000e-01|   -5.282015|   -5.669873|   -5.856064|   -5.727206|   -5.453106|  -13.026133|    3.406366|
|         173|  6.4189e+00|  2.6970e-08|  7.7145e-01|  5.0000e-01|  5.0000e-01|  5.0000e-01|   -5.271644|   -5.678247|   -5.847997|   -5.725316|   -5.440249|  -13.013179|    3.377223|
|         174|  6.4182e+00|  2.6894e-08|  7.7145e-01|  5.0000e-01|  5.0000e-01|  5.0000e-01|   -5.260306|   -5.686225|   -5.840298|   -5.725780|   -5.425797|  -13.000462|    3.348953|
|         175|  6.4181e+00|  2.6819e-08|  7.7145e-01|  5.0000e-01|  5.0000e-01|  5.0000e-01|   -5.249507|   -5.692094|   -5.833903|   -5.728335|   -5.411718|  -12.988281|    3.322166|
|         176|  6.4177e+00|  2.6744e-08|  7.7145e-01|  5.0000e-01|  5.0000e-01|  5.0000e-01|   -5.240520|   -5.694320|   -5.829579|   -5.732384|   -5.399686|  -12.981724|    3.297419|
|         177|  6.4173e+00|  2.6670e-08|  7.7145e-01|  5.0000e-01|  5.0000e-01|  5.0000e-01|   -5.234623|   -5.692154|   -5.827798|   -5.737051|   -5.391440|  -12.981735|    3.275206|
|         178|  6.4178e+00|  2.6597e-08|  7.7145e-01|  5.0000e-01|  5.0000e-01|  5.0000e-01|   -5.232541|   -5.685912|   -5.828573|   -5.741296|   -5.388015|  -12.987226|    3.255948|
|         179|  6.4175e+00|  2.6525e-08|  7.7145e-01|  5.0000e-01|  5.0000e-01|  5.0000e-01|   -5.234420|   -5.676755|   -5.831545|   -5.744115|   -5.389703|  -12.996611|    3.239991|
|         180|  6.4173e+00|  2.6453e-08|  7.7145e-01|  5.0000e-01|  5.0000e-01|  5.0000e-01|   -5.239979|   -5.666199|   -5.836020|   -5.744729|   -5.396174|  -13.007796|    3.227601|
|         181|  6.4168e+00|  2.6381e-08|  7.7145e-01|  5.0000e-01|  5.0000e-01|  5.0000e-01|   -5.248288|   -5.656056|   -5.841078|   -5.742829|   -5.406358|  -13.018546|    3.218961|
|         182|  6.4162e+00|  2.6311e-08|  7.7145e-01|  5.0000e-01|  5.0000e-01|  5.0000e-01|   -5.257953|   -5.647855|   -5.845670|   -5.738656|   -5.418676|  -13.026758|    3.214172|
|         183|  6.4161e+00|  2.6240e-08|  7.7145e-01|  5.0000e-01|  5.0000e-01|  5.0000e-01|   -5.267254|   -5.642552|   -5.848767|   -5.732883|   -5.431032|  -13.030886|    3.213251|
|         184|  6.4159e+00|  2.6171e-08|  7.7145e-01|  5.0000e-01|  5.0000e-01|  5.0000e-01|   -5.274357|   -5.640611|   -5.849577|   -5.726438|   -5.441005|  -13.030318|    3.216132|
|         185|  6.4153e+00|  2.6102e-08|  7.7145e-01|  5.0000e-01|  5.0000e-01|  5.0000e-01|   -5.277696|   -5.642109|   -5.847730|   -5.720308|   -5.446324|  -13.025101|    3.222669|
|         186|  6.4145e+00|  2.6034e-08|  7.7145e-01|  5.0000e-01|  5.0000e-01|  5.0000e-01|   -5.276438|   -5.646796|   -5.843393|   -5.715372|   -5.445597|  -13.016049|    3.232638|
|         187|  6.4136e+00|  2.5966e-08|  7.7145e-01|  5.0000e-01|  5.0000e-01|  5.0000e-01|   -5.270776|   -5.654084|   -5.837217|   -5.712307|   -5.438765|  -13.004381|    3.245745|
|         188|  6.4130e+00|  2.5899e-08|  7.7145e-01|  5.0000e-01|  5.0000e-01|  5.0000e-01|   -5.261737|   -5.662821|   -5.830184|   -5.711488|   -5.427050|  -12.991480|    3.261625|
|         189|  6.4125e+00|  2.5832e-08|  7.7145e-01|  5.0000e-01|  5.0000e-01|  5.0000e-01|   -5.250949|   -5.671446|   -5.823449|   -5.712964|   -5.412684|  -12.978215|    3.279858|
|         190|  6.4120e+00|  2.5766e-08|  7.7145e-01|  5.0000e-01|  5.0000e-01|  5.0000e-01|   -5.240208|   -5.678254|   -5.818108|   -5.716442|   -5.398156|  -12.966021|    3.299985|
|         191|  6.4112e+00|  2.5700e-08|  7.7145e-01|  5.0000e-01|  5.0000e-01|  5.0000e-01|   -5.231172|   -5.681792|   -5.815046|   -5.721281|   -5.385725|  -12.960305|    3.321522|
|         192|  6.4112e+00|  2.5635e-08|  7.7145e-01|  5.0000e-01|  5.0000e-01|  5.0000e-01|   -5.225369|   -5.681382|   -5.814749|   -5.726585|   -5.377479|  -12.961303|    3.343961|
|         193|  6.4111e+00|  2.5571e-08|  7.7145e-01|  5.0000e-01|  5.0000e-01|  5.0000e-01|   -5.223616|   -5.677320|   -5.817202|   -5.731350|   -5.374544|  -12.967983|    3.366784|
|         194|  6.4108e+00|  2.5507e-08|  7.7145e-01|  5.0000e-01|  5.0000e-01|  5.0000e-01|   -5.226140|   -5.670564|   -5.821954|   -5.734653|   -5.377248|  -12.978666|    3.389471|
|         195|  6.4113e+00|  2.5443e-08|  7.7145e-01|  5.0000e-01|  5.0000e-01|  5.0000e-01|   -5.232597|   -5.662448|   -5.828179|   -5.735842|   -5.385154|  -12.991219|    3.411511|
|         196|  6.4117e+00|  2.5380e-08|  7.7145e-01|  5.0000e-01|  5.0000e-01|  5.0000e-01|   -5.241956|   -5.654571|   -5.834813|   -5.734742|   -5.397049|  -13.003688|    3.432422|
|         197|  6.4109e+00|  2.5318e-08|  7.7145e-01|  5.0000e-01|  5.0000e-01|  5.0000e-01|   -5.252721|   -5.648274|   -5.840702|   -5.731675|   -5.411183|  -13.013953|    3.451755|
|         198|  6.4099e+00|  2.5256e-08|  7.7145e-01|  5.0000e-01|  5.0000e-01|  5.0000e-01|   -5.263095|   -5.644422|   -5.844787|   -5.727323|   -5.425304|  -13.020351|    3.469109|
|         199|  6.4094e+00|  2.5194e-08|  7.7145e-01|  5.0000e-01|  5.0000e-01|  5.0000e-01|   -5.271207|   -5.643439|   -5.846329|   -5.722568|   -5.436874|  -13.021937|    3.484135|
|         200|  6.4087e+00|  2.5133e-08|  7.7145e-01|  5.0000e-01|  5.0000e-01|  5.0000e-01|   -5.275501|   -5.645376|   -5.845079|   -5.718291|   -5.443588|  -13.018710|    3.496543|
|         201|  6.4083e+00|  2.5073e-08|  7.7145e-01|  5.0000e-01|  5.0000e-01|  5.0000e-01|   -5.275195|   -5.649993|   -5.841352|   -5.715249|   -5.444086|  -13.011452|    3.506109|
|         202|  6.4075e+00|  2.5013e-08|  7.7145e-01|  5.0000e-01|  5.0000e-01|  5.0000e-01|   -5.270490|   -5.656692|   -5.835916|   -5.713979|   -5.438326|  -13.001427|    3.512680|
|         203|  6.4065e+00|  2.4953e-08|  7.7145e-01|  5.0000e-01|  5.0000e-01|  5.0000e-01|   -5.262427|   -5.664338|   -5.829839|   -5.714703|   -5.427666|  -12.990113|    3.516169|
|         204|  6.4059e+00|  2.4894e-08|  7.7145e-01|  5.0000e-01|  5.0000e-01|  5.0000e-01|   -5.252680|   -5.671538|   -5.824279|   -5.717322|   -5.414472|  -12.978442|    3.516565|
|         205|  6.4052e+00|  2.4835e-08|  7.7145e-01|  5.0000e-01|  5.0000e-01|  5.0000e-01|   -5.243063|   -5.676871|   -5.820252|   -5.721408|   -5.401292|  -12.967698|    3.513927|
|         206|  6.4041e+00|  2.4777e-08|  7.7145e-01|  5.0000e-01|  5.0000e-01|  5.0000e-01|   -5.235178|   -5.679188|   -5.818504|   -5.726217|   -5.390305|  -12.962747|    3.508383|
|         207|  6.4034e+00|  2.4719e-08|  7.7145e-01|  5.0000e-01|  5.0000e-01|  5.0000e-01|   -5.230500|   -5.678117|   -5.819355|   -5.730868|   -5.383507|  -12.963858|    3.500123|
|         208|  6.4025e+00|  2.4662e-08|  7.7145e-01|  5.0000e-01|  5.0000e-01|  5.0000e-01|   -5.229732|   -5.674000|   -5.822619|   -5.734465|   -5.381840|  -12.970028|    3.489403|
|         209|  6.4017e+00|  2.4605e-08|  7.7145e-01|  5.0000e-01|  5.0000e-01|  5.0000e-01|   -5.232967|   -5.667680|   -5.827708|   -5.736292|   -5.385433|  -12.979721|    3.476531|
|         210|  6.4009e+00|  2.4549e-08|  7.7145e-01|  5.0000e-01|  5.0000e-01|  5.0000e-01|   -5.239680|   -5.660365|   -5.833730|   -5.735983|   -5.393633|  -12.991280|    3.461856|
|         211|  6.4005e+00|  2.4493e-08|  7.7145e-01|  5.0000e-01|  5.0000e-01|  5.0000e-01|   -5.248740|   -5.653437|   -5.839640|   -5.733627|   -5.405104|  -13.002589|    3.445757|
|         212|  6.4001e+00|  2.4437e-08|  7.7145e-01|  5.0000e-01|  5.0000e-01|  5.0000e-01|   -5.258639|   -5.648032|   -5.844397|   -5.729710|   -5.418063|  -13.011701|    3.428636|
|         213|  6.4000e+00|  2.4382e-08|  7.7145e-01|  5.0000e-01|  5.0000e-01|  5.0000e-01|   -5.267661|   -5.644876|   -5.847131|   -5.724969|   -5.430360|  -13.017153|    3.410907|
|         214|  6.3998e+00|  2.4327e-08|  7.7145e-01|  5.0000e-01|  5.0000e-01|  5.0000e-01|   -5.274121|   -5.644312|   -5.847332|   -5.720220|   -5.439721|  -13.018144|    3.392991|
|         215|  6.3995e+00|  2.4272e-08|  7.7145e-01|  5.0000e-01|  5.0000e-01|  5.0000e-01|   -5.276733|   -5.646359|   -5.844961|   -5.716216|   -5.444255|  -13.014689|    3.375303|
|         216|  6.3991e+00|  2.4218e-08|  7.7145e-01|  5.0000e-01|  5.0000e-01|  5.0000e-01|   -5.274995|   -5.650785|   -5.840459|   -5.713554|   -5.443044|  -13.007550|    3.358246|
|         217|  6.3992e+00|  2.4165e-08|  7.7145e-01|  5.0000e-01|  5.0000e-01|  5.0000e-01|   -5.269289|   -5.657026|   -5.834606|   -5.712613|   -5.436333|  -12.997995|    3.342200|
|         218|  6.3989e+00|  2.4111e-08|  7.7145e-01|  5.0000e-01|  5.0000e-01|  5.0000e-01|   -5.260704|   -5.664021|   -5.828384|   -5.713472|   -5.425495|  -12.987288|    3.327511|
|         219|  6.3989e+00|  2.4058e-08|  7.7145e-01|  5.0000e-01|  5.0000e-01|  5.0000e-01|   -5.250807|   -5.670461|   -5.822797|   -5.715922|   -5.412636|  -12.976197|    3.314489|
|         220|  6.3990e+00|  2.4006e-08|  7.7145e-01|  5.0000e-01|  5.0000e-01|  5.0000e-01|   -5.241214|   -5.674998|   -5.818692|   -5.719472|   -5.399939|  -12.965044|    3.303397|
|         221|  6.3991e+00|  2.3954e-08|  7.7145e-01|  5.0000e-01|  5.0000e-01|  5.0000e-01|   -5.233284|   -5.676501|   -5.816674|   -5.723388|   -5.389207|  -12.958339|    3.294451|
|         222|  6.3988e+00|  2.3902e-08|  7.7145e-01|  5.0000e-01|  5.0000e-01|  5.0000e-01|   -5.228312|   -5.674540|   -5.817007|   -5.726882|   -5.382180|  -12.957297|    3.287810|
|         223|  6.3983e+00|  2.3850e-08|  7.7145e-01|  5.0000e-01|  5.0000e-01|  5.0000e-01|   -5.227016|   -5.669433|   -5.819509|   -5.729225|   -5.379842|  -12.961294|    3.283580|
|         224|  6.3978e+00|  2.3799e-08|  7.7145e-01|  5.0000e-01|  5.0000e-01|  5.0000e-01|   -5.229482|   -5.662055|   -5.823644|   -5.729897|   -5.382346|  -12.969047|    3.281808|
|         225|  6.3974e+00|  2.3749e-08|  7.7145e-01|  5.0000e-01|  5.0000e-01|  5.0000e-01|   -5.235292|   -5.653622|   -5.828614|   -5.728699|   -5.389197|  -12.978812|    3.282481|
|         226|  6.3973e+00|  2.3698e-08|  7.7145e-01|  5.0000e-01|  5.0000e-01|  5.0000e-01|   -5.243454|   -5.645514|   -5.833490|   -5.725801|   -5.399236|  -12.988833|    3.285532|
|         227|  6.3970e+00|  2.3648e-08|  7.7145e-01|  5.0000e-01|  5.0000e-01|  5.0000e-01|   -5.252585|   -5.638906|   -5.837352|   -5.721685|   -5.410853|  -12.997310|    3.290833|
|         228|  6.3964e+00|  2.3599e-08|  7.7145e-01|  5.0000e-01|  5.0000e-01|  5.0000e-01|   -5.261082|   -5.634571|   -5.839434|   -5.717013|   -5.422094|  -13.002780|    3.298208|
|         229|  6.3965e+00|  2.3549e-08|  7.7145e-01|  5.0000e-01|  5.0000e-01|  5.0000e-01|   -5.267330|   -5.632875|   -5.839277|   -5.712487|   -5.430860|  -13.004307|    3.307430|
|         230|  6.3964e+00|  2.3500e-08|  7.7145e-01|  5.0000e-01|  5.0000e-01|  5.0000e-01|   -5.270038|   -5.633871|   -5.836823|   -5.708733|   -5.435332|  -13.001673|    3.318227|
|         231|  6.3961e+00|  2.3452e-08|  7.7145e-01|  5.0000e-01|  5.0000e-01|  5.0000e-01|   -5.268585|   -5.637351|   -5.832427|   -5.706245|   -5.434497|  -12.995347|    3.330297|
|         232|  6.3958e+00|  2.3403e-08|  7.7145e-01|  5.0000e-01|  5.0000e-01|  5.0000e-01|   -5.263198|   -5.642853|   -5.826756|   -5.705326|   -5.428384|  -12.986320|    3.343315|
|         233|  6.3953e+00|  2.3355e-08|  7.7145e-01|  5.0000e-01|  5.0000e-01|  5.0000e-01|   -5.254777|   -5.649415|   -5.820667|   -5.706015|   -5.418030|  -12.975650|    3.356935|
|         234|  6.3955e+00|  2.3308e-08|  7.7145e-01|  5.0000e-01|  5.0000e-01|  5.0000e-01|   -5.244738|   -5.655757|   -5.815073|   -5.708089|   -5.405262|  -12.964027|    3.370806|
|         235|  6.3958e+00|  2.3260e-08|  7.7145e-01|  5.0000e-01|  5.0000e-01|  5.0000e-01|   -5.234650|   -5.660506|   -5.810791|   -5.711089|   -5.392160|  -12.951676|    3.384573|
|         236|  6.3961e+00|  2.3213e-08|  7.7145e-01|  5.0000e-01|  5.0000e-01|  5.0000e-01|   -5.225908|   -5.662412|   -5.808437|   -5.714379|   -5.380560|  -12.942915|    3.397893|
|         237|  6.3959e+00|  2.3166e-08|  7.7145e-01|  5.0000e-01|  5.0000e-01|  5.0000e-01|   -5.219861|   -5.660841|   -5.808347|   -5.717308|   -5.372264|  -12.939772|    3.410440|
|         238|  6.3952e+00|  2.3120e-08|  7.7145e-01|  5.0000e-01|  5.0000e-01|  5.0000e-01|   -5.217391|   -5.655933|   -5.810442|   -5.719301|   -5.368482|  -12.941953|    3.421917|
|         239|  6.3948e+00|  2.3074e-08|  7.7145e-01|  5.0000e-01|  5.0000e-01|  5.0000e-01|   -5.218749|   -5.648459|   -5.814288|   -5.719963|   -5.369597|  -12.948403|    3.432058|
|         240|  6.3946e+00|  2.3028e-08|  7.7145e-01|  5.0000e-01|  5.0000e-01|  5.0000e-01|   -5.223701|   -5.639571|   -5.819176|   -5.719145|   -5.375359|  -12.957515|    3.440638|
|         241|  6.3947e+00|  2.2982e-08|  7.7145e-01|  5.0000e-01|  5.0000e-01|  5.0000e-01|   -5.231436|   -5.630631|   -5.824228|   -5.716980|   -5.384837|  -12.967613|    3.447474|
|         242|  6.3945e+00|  2.2937e-08|  7.7145e-01|  5.0000e-01|  5.0000e-01|  5.0000e-01|   -5.240671|   -5.622859|   -5.828531|   -5.713841|   -5.396546|  -12.976915|    3.452430|
|         243|  6.3942e+00|  2.2892e-08|  7.7145e-01|  5.0000e-01|  5.0000e-01|  5.0000e-01|   -5.249834|   -5.617105|   -5.831295|   -5.710258|   -5.408602|  -12.983795|    3.455423|
|         244|  6.3938e+00|  2.2848e-08|  7.7145e-01|  5.0000e-01|  5.0000e-01|  5.0000e-01|   -5.257248|   -5.613790|   -5.831989|   -5.706796|   -5.418858|  -12.987079|    3.456417|
|         245|  6.3936e+00|  2.2803e-08|  7.7145e-01|  5.0000e-01|  5.0000e-01|  5.0000e-01|   -5.261443|   -5.612993|   -5.830460|   -5.703966|   -5.425284|  -12.986260|    3.455429|
|         246|  6.3936e+00|  2.2759e-08|  7.7145e-01|  5.0000e-01|  5.0000e-01|  5.0000e-01|   -5.261530|   -5.614526|   -5.826968|   -5.702177|   -5.426508|  -12.981452|    3.452524|
|         247|  6.3934e+00|  2.2715e-08|  7.7145e-01|  5.0000e-01|  5.0000e-01|  5.0000e-01|   -5.257454|   -5.617972|   -5.822100|   -5.701674|   -5.422156|  -12.973390|    3.447816|
|         248|  6.3930e+00|  2.2672e-08|  7.7145e-01|  5.0000e-01|  5.0000e-01|  5.0000e-01|   -5.249899|   -5.622450|   -5.816671|   -5.702464|   -5.412950|  -12.963149|    3.441462|
|         249|  6.3928e+00|  2.2628e-08|  7.7145e-01|  5.0000e-01|  5.0000e-01|  5.0000e-01|   -5.240213|   -5.626801|   -5.811588|   -5.704331|   -5.400647|  -12.951579|    3.433657|
|         250|  6.3929e+00|  2.2585e-08|  7.7145e-01|  5.0000e-01|  5.0000e-01|  5.0000e-01|   -5.230027|   -5.629793|   -5.807683|   -5.706868|   -5.387442|  -12.939074|    3.424630|
|         251|  6.3928e+00|  2.2542e-08|  7.7145e-01|  5.0000e-01|  5.0000e-01|  5.0000e-01|   -5.220870|   -5.630328|   -5.805605|   -5.709553|   -5.375376|  -12.929518|    3.414635|
|         252|  6.3924e+00|  2.2500e-08|  7.7145e-01|  5.0000e-01|  5.0000e-01|  5.0000e-01|   -5.214206|   -5.627827|   -5.805718|   -5.711875|   -5.366399|  -12.925263|    3.403941|
|         253|  6.3928e+00|  2.2458e-08|  7.7145e-01|  5.0000e-01|  5.0000e-01|  5.0000e-01|   -5.211024|   -5.622355|   -5.807984|   -5.713405|   -5.361858|  -12.926174|    3.392832|
|         254|  6.3926e+00|  2.2416e-08|  7.7145e-01|  5.0000e-01|  5.0000e-01|  5.0000e-01|   -5.211671|   -5.614508|   -5.811996|   -5.713859|   -5.362248|  -12.931298|    3.381592|
|         255|  6.3923e+00|  2.2374e-08|  7.7145e-01|  5.0000e-01|  5.0000e-01|  5.0000e-01|   -5.215955|   -5.605210|   -5.817067|   -5.713133|   -5.367360|  -12.939359|    3.370506|
|         256|  6.3926e+00|  2.2332e-08|  7.7145e-01|  5.0000e-01|  5.0000e-01|  5.0000e-01|   -5.223115|   -5.595589|   -5.822333|   -5.711337|   -5.376325|  -12.948702|    3.359847|
|         257|  6.3924e+00|  2.2291e-08|  7.7145e-01|  5.0000e-01|  5.0000e-01|  5.0000e-01|   -5.231903|   -5.586669|   -5.826899|   -5.708762|   -5.387685|  -12.957547|    3.349874|
|         258|  6.3920e+00|  2.2250e-08|  7.7145e-01|  5.0000e-01|  5.0000e-01|  5.0000e-01|   -5.240784|   -5.579180|   -5.829982|   -5.705830|   -5.399596|  -12.964306|    3.340823|
|         259|  6.3913e+00|  2.2209e-08|  7.7145e-01|  5.0000e-01|  5.0000e-01|  5.0000e-01|   -5.248106|   -5.573484|   -5.831053|   -5.702978|   -5.409954|  -12.967791|    3.332904|
|         260|  6.3910e+00|  2.2169e-08|  7.7145e-01|  5.0000e-01|  5.0000e-01|  5.0000e-01|   -5.252393|   -5.569638|   -5.829949|   -5.700611|   -5.416732|  -12.967428|    3.326294|
|         261|  6.3907e+00|  2.2129e-08|  7.7145e-01|  5.0000e-01|  5.0000e-01|  5.0000e-01|   -5.252708|   -5.567467|   -5.826908|   -5.699040|   -5.418503|  -12.963236|    3.321137|
|         262|  6.3905e+00|  2.2088e-08|  7.7145e-01|  5.0000e-01|  5.0000e-01|  5.0000e-01|   -5.248909|   -5.566627|   -5.822482|   -5.698442|   -5.414794|  -12.955806|    3.317538|
|         263|  6.3903e+00|  2.2049e-08|  7.7145e-01|  5.0000e-01|  5.0000e-01|  5.0000e-01|   -5.241572|   -5.566423|   -5.817443|   -5.698790|   -5.406180|  -12.946170|    3.315564|
|         264|  6.3901e+00|  2.2009e-08|  7.7145e-01|  5.0000e-01|  5.0000e-01|  5.0000e-01|   -5.231963|   -5.565994|   -5.812657|   -5.699877|   -5.394306|  -12.935252|    3.315240|
|         265|  6.3897e+00|  2.1970e-08|  7.7145e-01|  5.0000e-01|  5.0000e-01|  5.0000e-01|   -5.221649|   -5.564469|   -5.808918|   -5.701355|   -5.381278|  -12.923466|    3.316553|
|         266|  6.3892e+00|  2.1931e-08|  7.7145e-01|  5.0000e-01|  5.0000e-01|  5.0000e-01|   -5.212122|   -5.561125|   -5.806839|   -5.702808|   -5.369090|  -12.913291|    3.319447|
|         267|  6.3887e+00|  2.1892e-08|  7.7145e-01|  5.0000e-01|  5.0000e-01|  5.0000e-01|   -5.204742|   -5.555592|   -5.806783|   -5.703851|   -5.359555|  -12.907653|    3.323832|
|         268|  6.3883e+00|  2.1853e-08|  7.7145e-01|  5.0000e-01|  5.0000e-01|  5.0000e-01|   -5.200516|   -5.547940|   -5.808728|   -5.704178|   -5.354042|  -12.906649|    3.329580|
|         269|  6.3879e+00|  2.1815e-08|  7.7145e-01|  5.0000e-01|  5.0000e-01|  5.0000e-01|   -5.199805|   -5.538587|   -5.812304|   -5.703599|   -5.353071|  -12.909541|    3.336532|
|         270|  6.3880e+00|  2.1776e-08|  7.7145e-01|  5.0000e-01|  5.0000e-01|  5.0000e-01|   -5.202424|   -5.528168|   -5.816869|   -5.702061|   -5.356454|  -12.915243|    3.344500|
|         271|  6.3875e+00|  2.1739e-08|  7.7145e-01|  5.0000e-01|  5.0000e-01|  5.0000e-01|   -5.207690|   -5.517456|   -5.821618|   -5.699670|   -5.363413|  -12.922267|    3.353277|
|         272|  6.3877e+00|  2.1701e-08|  7.7145e-01|  5.0000e-01|  5.0000e-01|  5.0000e-01|   -5.214462|   -5.507159|   -5.825720|   -5.696665|   -5.372600|  -12.929047|    3.362640|
|         273|  6.3877e+00|  2.1663e-08|  7.7145e-01|  5.0000e-01|  5.0000e-01|  5.0000e-01|   -5.221347|   -5.497796|   -5.828451|   -5.693375|   -5.382338|  -12.934189|    3.372354|
|         274|  6.3876e+00|  2.1626e-08|  7.7145e-01|  5.0000e-01|  5.0000e-01|  5.0000e-01|   -5.226879|   -5.489636|   -5.829316|   -5.690146|   -5.390763|  -12.936651|    3.382181|
|         275|  6.3880e+00|  2.1589e-08|  7.7145e-01|  5.0000e-01|  5.0000e-01|  5.0000e-01|   -5.229757|   -5.482725|   -5.828151|   -5.687286|   -5.396102|  -12.935890|    3.391881|
|         276|  6.3881e+00|  2.1552e-08|  7.7145e-01|  5.0000e-01|  5.0000e-01|  5.0000e-01|   -5.229145|   -5.476949|   -5.825151|   -5.685024|   -5.397095|  -12.931856|    3.401224|
|         277|  6.3882e+00|  2.1515e-08|  7.7145e-01|  5.0000e-01|  5.0000e-01|  5.0000e-01|   -5.224889|   -5.472089|   -5.820803|   -5.683488|   -5.393307|  -12.925032|    3.409992|
|         278|  6.3881e+00|  2.1479e-08|  7.7145e-01|  5.0000e-01|  5.0000e-01|  5.0000e-01|   -5.217445|   -5.467741|   -5.815789|   -5.682648|   -5.385135|  -12.916218|    3.417984|
|         279|  6.3879e+00|  2.1442e-08|  7.7145e-01|  5.0000e-01|  5.0000e-01|  5.0000e-01|   -5.207847|   -5.463385|   -5.810892|   -5.682329|   -5.373872|  -12.906183|    3.425024|
|         280|  6.3885e+00|  2.1406e-08|  7.7145e-01|  5.0000e-01|  5.0000e-01|  5.0000e-01|   -5.197426|   -5.458516|   -5.806849|   -5.682268|   -5.361282|  -12.895397|    3.430960|
|         281|  6.3893e+00|  2.1370e-08|  7.7145e-01|  5.0000e-01|  5.0000e-01|  5.0000e-01|   -5.187489|   -5.452707|   -5.804252|   -5.682163|   -5.349109|  -12.884891|    3.435672|
|         282|  6.3895e+00|  2.1335e-08|  7.7145e-01|  5.0000e-01|  5.0000e-01|  5.0000e-01|   -5.179193|   -5.445725|   -5.803491|   -5.681739|   -5.338907|  -12.877872|    3.439070|
|         283|  6.3896e+00|  2.1299e-08|  7.7145e-01|  5.0000e-01|  5.0000e-01|  5.0000e-01|   -5.173526|   -5.437582|   -5.804623|   -5.680793|   -5.332045|  -12.874928|    3.441098|
|         284|  6.3898e+00|  2.1264e-08|  7.7145e-01|  5.0000e-01|  5.0000e-01|  5.0000e-01|   -5.170901|   -5.428493|   -5.807376|   -5.679202|   -5.329139|  -12.875625|    3.441734|
|         285|  6.3897e+00|  2.1229e-08|  7.7145e-01|  5.0000e-01|  5.0000e-01|  5.0000e-01|   -5.171242|   -5.418823|   -5.811203|   -5.676935|   -5.330165|  -12.879026|    3.440992|
|         286|  6.3897e+00|  2.1194e-08|  7.7145e-01|  5.0000e-01|  5.0000e-01|  5.0000e-01|   -5.174040|   -5.409013|   -5.815392|   -5.674062|   -5.334544|  -12.883990|    3.438916|
|         287|  6.3895e+00|  2.1159e-08|  7.7145e-01|  5.0000e-01|  5.0000e-01|  5.0000e-01|   -5.178382|   -5.399506|   -5.819171|   -5.670749|   -5.341194|  -12.889176|    3.435584|
|         288|  6.3893e+00|  2.1124e-08|  7.7145e-01|  5.0000e-01|  5.0000e-01|  5.0000e-01|   -5.183107|   -5.390657|   -5.821839|   -5.667226|   -5.348692|  -12.893356|    3.431101|
|         289|  6.3898e+00|  2.1090e-08|  7.7145e-01|  5.0000e-01|  5.0000e-01|  5.0000e-01|   -5.186984|   -5.382676|   -5.822883|   -5.663743|   -5.355456|  -12.895578|    3.425599|
|         290|  6.3905e+00|  2.1056e-08|  7.7145e-01|  5.0000e-01|  5.0000e-01|  5.0000e-01|   -5.188900|   -5.375630|   -5.822068|   -5.660526|   -5.359959|  -12.895271|    3.419234|
|         291|  6.3908e+00|  2.1022e-08|  7.7145e-01|  5.0000e-01|  5.0000e-01|  5.0000e-01|   -5.188082|   -5.369474|   -5.819491|   -5.657739|   -5.361029|  -12.892260|    3.412177|
|         292|  6.3910e+00|  2.0988e-08|  7.7145e-01|  5.0000e-01|  5.0000e-01|  5.0000e-01|   -5.184280|   -5.364089|   -5.815536|   -5.655478|   -5.358142|  -12.886728|    3.404610|
|         293|  6.3908e+00|  2.0954e-08|  7.7145e-01|  5.0000e-01|  5.0000e-01|  5.0000e-01|   -5.177742|   -5.359260|   -5.810784|   -5.653733|   -5.351413|  -12.879246|    3.396725|
|         294|  6.3909e+00|  2.0921e-08|  7.7145e-01|  5.0000e-01|  5.0000e-01|  5.0000e-01|   -5.169180|   -5.354674|   -5.805949|   -5.652385|   -5.341693|  -12.870451|    3.388717|
|         295|  6.3911e+00|  2.0888e-08|  7.7145e-01|  5.0000e-01|  5.0000e-01|  5.0000e-01|   -5.159646|   -5.350008|   -5.801750|   -5.651269|   -5.330382|  -12.860850|    3.380778|
|         296|  6.3914e+00|  2.0854e-08|  7.7145e-01|  5.0000e-01|  5.0000e-01|  5.0000e-01|   -5.150253|   -5.344973|   -5.798802|   -5.650192|   -5.318999|  -12.850940|    3.373098|
|         297|  6.3913e+00|  2.0822e-08|  7.7145e-01|  5.0000e-01|  5.0000e-01|  5.0000e-01|   -5.142025|   -5.339378|   -5.797547|   -5.648978|   -5.308965|  -12.843488|    3.365853|
|         298|  6.3911e+00|  2.0789e-08|  7.7145e-01|  5.0000e-01|  5.0000e-01|  5.0000e-01|   -5.135906|   -5.333169|   -5.798146|   -5.647497|   -5.301622|  -12.839567|    3.359207|
|         299|  6.3910e+00|  2.0756e-08|  7.7145e-01|  5.0000e-01|  5.0000e-01|  5.0000e-01|   -5.132392|   -5.326421|   -5.800425|   -5.645660|   -5.297725|  -12.839031|    3.353307|
|         300|  6.3909e+00|  2.0724e-08|  7.7145e-01|  5.0000e-01|  5.0000e-01|  5.0000e-01|   -5.131537|   -5.319322|   -5.803932|   -5.643431|   -5.297435|  -12.841180|    3.348277|
+-----------------------------------------------------------------------+
|        File Writing Summary       |              Filename             |
+-----------------------------------------------------------------------+
|SU2 binary restart                 |restart_flow.dat                   |
|Paraview                           |flow.vtu                           |
|Paraview surface                   |surface_flow.vtu                   |
+-----------------------------------------------------------------------+
+-------------------------------------------------------------------------------------------------------------------------------------------------------------------------------------+
|  Inner_Iter|   Time(sec)|      Min DT|      Max DT|     Min CFL|     Max CFL|     Avg CFL|    rms[Rho]|   rms[RhoU]|   rms[RhoV]|   rms[RhoW]|   rms[RhoE]|     rms[nu]|          CD|
+-------------------------------------------------------------------------------------------------------------------------------------------------------------------------------------+
|         301|  6.4740e+00|  2.0691e-08|  7.7145e-01|  5.0000e-01|  5.0000e-01|  5.0000e-01|   -5.133002|   -5.312112|   -5.808019|   -5.640826|   -5.300366|  -12.845082|    3.344220|
|         302|  6.4757e+00|  2.0659e-08|  7.7145e-01|  5.0000e-01|  5.0000e-01|  5.0000e-01|   -5.136084|   -5.305072|   -5.811942|   -5.637928|   -5.305677|  -12.849583|    3.341215|
|         303|  6.4776e+00|  2.0627e-08|  7.7145e-01|  5.0000e-01|  5.0000e-01|  5.0000e-01|   -5.139826|   -5.298445|   -5.814992|   -5.634869|   -5.312152|  -12.853566|    3.339312|
|         304|  6.4782e+00|  2.0596e-08|  7.7145e-01|  5.0000e-01|  5.0000e-01|  5.0000e-01|   -5.143177|   -5.292402|   -5.816607|   -5.631809|   -5.318405|  -12.856122|    3.338535|
|         305|  6.4790e+00|  2.0564e-08|  7.7145e-01|  5.0000e-01|  5.0000e-01|  5.0000e-01|   -5.145156|   -5.287017|   -5.816478|   -5.628895|   -5.323057|  -12.856653|    3.338883|
|         306|  6.4795e+00|  2.0533e-08|  7.7145e-01|  5.0000e-01|  5.0000e-01|  5.0000e-01|   -5.145021|   -5.282283|   -5.814606|   -5.626239|   -5.324972|  -12.854891|    3.340324|
|         307|  6.4798e+00|  2.0501e-08|  7.7145e-01|  5.0000e-01|  5.0000e-01|  5.0000e-01|   -5.142429|   -5.278137|   -5.811288|   -5.623910|   -5.323519|  -12.850814|    3.342806|
|         308|  6.4798e+00|  2.0470e-08|  7.7145e-01|  5.0000e-01|  5.0000e-01|  5.0000e-01|   -5.137454|   -5.274452|   -5.807035|   -5.621919|   -5.318606|  -12.844809|    3.346247|
|         309|  6.4797e+00|  2.0439e-08|  7.7145e-01|  5.0000e-01|  5.0000e-01|  5.0000e-01|   -5.130560|   -5.271020|   -5.802514|   -5.620201|   -5.310767|  -12.837457|    3.350548|
|         310|  6.4795e+00|  2.0408e-08|  7.7145e-01|  5.0000e-01|  5.0000e-01|  5.0000e-01|   -5.122570|   -5.267612|   -5.798434|   -5.618667|   -5.301129|  -12.829291|    3.355588|
|         311|  6.4794e+00|  2.0378e-08|  7.7145e-01|  5.0000e-01|  5.0000e-01|  5.0000e-01|   -5.114432|   -5.264009|   -5.795426|   -5.617210|   -5.291030|  -12.820602|    3.361231|
|         312|  6.4793e+00|  2.0347e-08|  7.7145e-01|  5.0000e-01|  5.0000e-01|  5.0000e-01|   -5.107058|   -5.260047|   -5.793964|   -5.615728|   -5.281782|  -12.813434|    3.367329|
|         313|  6.4791e+00|  2.0317e-08|  7.7145e-01|  5.0000e-01|  5.0000e-01|  5.0000e-01|   -5.101314|   -5.255650|   -5.794276|   -5.614141|   -5.274647|  -12.809212|    3.373728|
|         314|  6.4788e+00|  2.0287e-08|  7.7145e-01|  5.0000e-01|  5.0000e-01|  5.0000e-01|   -5.097746|   -5.250828|   -5.796257|   -5.612380|   -5.270458|  -12.807995|    3.380266|
|         315|  6.4783e+00|  2.0256e-08|  7.7145e-01|  5.0000e-01|  5.0000e-01|  5.0000e-01|   -5.096489|   -5.245681|   -5.799521|   -5.610403|   -5.269486|  -12.809322|    3.386782|
|         316|  6.4780e+00|  2.0227e-08|  7.7145e-01|  5.0000e-01|  5.0000e-01|  5.0000e-01|   -5.097321|   -5.240352|   -5.803471|   -5.608191|   -5.271478|  -12.812427|    3.393120|
|         317|  6.4780e+00|  2.0197e-08|  7.7145e-01|  5.0000e-01|  5.0000e-01|  5.0000e-01|   -5.099694|   -5.235036|   -5.807399|   -5.605768|   -5.275765|  -12.816309|    3.399129|
|         318|  6.4781e+00|  2.0167e-08|  7.7145e-01|  5.0000e-01|  5.0000e-01|  5.0000e-01|   -5.102809|   -5.229911|   -5.810605|   -5.603200|   -5.281300|  -12.819980|    3.404670|
|         319|  6.4780e+00|  2.0138e-08|  7.7145e-01|  5.0000e-01|  5.0000e-01|  5.0000e-01|   -5.105772|   -5.225119|   -5.812520|   -5.600577|   -5.286876|  -12.822601|    3.409618|
|         320|  6.4777e+00|  2.0108e-08|  7.7145e-01|  5.0000e-01|  5.0000e-01|  5.0000e-01|   -5.107725|   -5.220742|   -5.812796|   -5.597992|   -5.291272|  -12.823589|    3.413866|
|         321|  6.4773e+00|  2.0079e-08|  7.7145e-01|  5.0000e-01|  5.0000e-01|  5.0000e-01|   -5.107984|   -5.216796|   -5.811376|   -5.595520|   -5.293446|  -12.822639|    3.417324|
|         322|  6.4770e+00|  2.0050e-08|  7.7145e-01|  5.0000e-01|  5.0000e-01|  5.0000e-01|   -5.106179|   -5.213255|   -5.808487|   -5.593213|   -5.292758|  -12.819658|    3.419926|
|         323|  6.4769e+00|  2.0021e-08|  7.7145e-01|  5.0000e-01|  5.0000e-01|  5.0000e-01|   -5.102289|   -5.210051|   -5.804574|   -5.591096|   -5.289033|  -12.814893|    3.421624|
|         324|  6.4768e+00|  1.9992e-08|  7.7145e-01|  5.0000e-01|  5.0000e-01|  5.0000e-01|   -5.096619|   -5.207050|   -5.800241|   -5.589150|   -5.282589|  -12.808852|    3.422397|
|         325|  6.4767e+00|  1.9964e-08|  7.7145e-01|  5.0000e-01|  5.0000e-01|  5.0000e-01|   -5.089802|   -5.204093|   -5.796155|   -5.587340|   -5.274302|  -12.802037|    3.422244|
|         326|  6.4765e+00|  1.9935e-08|  7.7145e-01|  5.0000e-01|  5.0000e-01|  5.0000e-01|   -5.082623|   -5.201018|   -5.792929|   -5.585622|   -5.265292|  -12.794709|    3.421188|
|         327|  6.4760e+00|  1.9907e-08|  7.7145e-01|  5.0000e-01|  5.0000e-01|  5.0000e-01|   -5.075876|   -5.197697|   -5.791045|   -5.583948|   -5.256711|  -12.787922|    3.419273|
|         328|  6.4758e+00|  1.9879e-08|  7.7145e-01|  5.0000e-01|  5.0000e-01|  5.0000e-01|   -5.070301|   -5.194051|   -5.790781|   -5.582272|   -5.249648|  -12.783445|    3.416562|
|         329|  6.4757e+00|  1.9850e-08|  7.7145e-01|  5.0000e-01|  5.0000e-01|  5.0000e-01|   -5.066475|   -5.190070|   -5.792113|   -5.580549|   -5.244985|  -12.781599|    3.413140|
|         330|  6.4753e+00|  1.9822e-08|  7.7145e-01|  5.0000e-01|  5.0000e-01|  5.0000e-01|   -5.064605|   -5.185809|   -5.794739|   -5.578741|   -5.243079|  -12.782112|    3.409103|
|         331|  6.4750e+00|  1.9795e-08|  7.7145e-01|  5.0000e-01|  5.0000e-01|  5.0000e-01|   -5.064580|   -5.181367|   -5.798138|   -5.576812|   -5.243830|  -12.784415|    3.404565|
|         332|  6.4749e+00|  1.9767e-08|  7.7145e-01|  5.0000e-01|  5.0000e-01|  5.0000e-01|   -5.066005|   -5.176881|   -5.801674|   -5.574758|   -5.246747|  -12.787677|    3.399645|
|         333|  6.4747e+00|  1.9739e-08|  7.7145e-01|  5.0000e-01|  5.0000e-01|  5.0000e-01|   -5.068253|   -5.172499|   -5.804690|   -5.572600|   -5.250997|  -12.791029|    3.394472|
|         334|  6.4745e+00|  1.9712e-08|  7.7145e-01|  5.0000e-01|  5.0000e-01|  5.0000e-01|   -5.070583|   -5.168343|   -5.806629|   -5.570386|   -5.255570|  -12.793702|    3.389177|
|         335|  6.4743e+00|  1.9684e-08|  7.7145e-01|  5.0000e-01|  5.0000e-01|  5.0000e-01|   -5.072264|   -5.164497|   -5.807114|   -5.568169|   -5.259424|  -12.795124|    3.383892|
|         336|  6.4748e+00|  1.9657e-08|  7.7145e-01|  5.0000e-01|  5.0000e-01|  5.0000e-01|   -5.072682|   -5.160998|   -5.806023|   -5.565999|   -5.261632|  -12.794953|    3.378747|
|         337|  6.4749e+00|  1.9630e-08|  7.7145e-01|  5.0000e-01|  5.0000e-01|  5.0000e-01|   -5.071449|   -5.157843|   -5.803493|   -5.563916|   -5.261560|  -12.793034|    3.373864|
|         338|  6.4747e+00|  1.9603e-08|  7.7145e-01|  5.0000e-01|  5.0000e-01|  5.0000e-01|   -5.068472|   -5.155000|   -5.799879|   -5.561950|   -5.258960|  -12.789480|    3.369359|
|         339|  6.4745e+00|  1.9576e-08|  7.7145e-01|  5.0000e-01|  5.0000e-01|  5.0000e-01|   -5.063910|   -5.152390|   -5.795688|   -5.560114|   -5.253949|  -12.784680|    3.365336|
|         340|  6.4744e+00|  1.9550e-08|  7.7145e-01|  5.0000e-01|  5.0000e-01|  5.0000e-01|   -5.058209|   -5.149902|   -5.791522|   -5.558412|   -5.247117|  -12.779073|    3.361886|
|         341|  6.4740e+00|  1.9523e-08|  7.7145e-01|  5.0000e-01|  5.0000e-01|  5.0000e-01|   -5.051988|   -5.147414|   -5.787968|   -5.556840|   -5.239339|  -12.772973|    3.359084|
|         342|  6.4736e+00|  1.9497e-08|  7.7145e-01|  5.0000e-01|  5.0000e-01|  5.0000e-01|   -5.045917|   -5.144815|   -5.785521|   -5.555388|   -5.231590|  -12.766720|    3.356989|
|         343|  6.4737e+00|  1.9470e-08|  7.7145e-01|  5.0000e-01|  5.0000e-01|  5.0000e-01|   -5.040630|   -5.142029|   -5.784520|   -5.554031|   -5.224802|  -12.762032|    3.355641|
|         344|  6.4734e+00|  1.9444e-08|  7.7145e-01|  5.0000e-01|  5.0000e-01|  5.0000e-01|   -5.036709|   -5.139023|   -5.785051|   -5.552743|   -5.219867|  -12.759659|    3.355063|
|         345|  6.4733e+00|  1.9418e-08|  7.7145e-01|  5.0000e-01|  5.0000e-01|  5.0000e-01|   -5.034453|   -5.135816|   -5.786928|   -5.551484|   -5.217275|  -12.759539|    3.355258|
|         346|  6.4731e+00|  1.9392e-08|  7.7145e-01|  5.0000e-01|  5.0000e-01|  5.0000e-01|   -5.033876|   -5.132472|   -5.789739|   -5.550212|   -5.217108|  -12.761281|    3.356212|
|         347|  6.4729e+00|  1.9366e-08|  7.7145e-01|  5.0000e-01|  5.0000e-01|  5.0000e-01|   -5.034733|   -5.129081|   -5.792929|   -5.548893|   -5.219063|  -12.764233|    3.357892|
|         348|  6.4726e+00|  1.9340e-08|  7.7145e-01|  5.0000e-01|  5.0000e-01|  5.0000e-01|   -5.036563|   -5.125761|   -5.795886|   -5.547516|   -5.222539|  -12.767612|    3.360248|
|         349|  6.4721e+00|  1.9314e-08|  7.7145e-01|  5.0000e-01|  5.0000e-01|  5.0000e-01|   -5.038753|   -5.122617|   -5.798050|   -5.546090|   -5.226690|  -12.770682|    3.363213|
[...]
|       10384|  6.1338e+00|  6.8797e-09|  7.7120e-01|  5.0000e-01|  5.0000e-01|  5.0000e-01|   -4.835003|   -4.899807|   -5.514481|   -5.531511|   -5.119386|   -8.031427|    2.303747|
|       10385|  6.1338e+00|  6.8793e-09|  7.7120e-01|  5.0000e-01|  5.0000e-01|  5.0000e-01|   -4.834238|   -4.898875|   -5.514069|   -5.531083|   -5.118620|   -8.031218|    2.303433|
|       10386|  6.1337e+00|  6.8790e-09|  7.7120e-01|  5.0000e-01|  5.0000e-01|  5.0000e-01|   -4.833479|   -4.897951|   -5.513658|   -5.530658|   -5.117859|   -8.031012|    2.303119|
|       10387|  6.1337e+00|  6.8786e-09|  7.7120e-01|  5.0000e-01|  5.0000e-01|  5.0000e-01|   -4.832725|   -4.897034|   -5.513246|   -5.530236|   -5.117102|   -8.030809|    2.302805|
|       10388|  6.1337e+00|  6.8783e-09|  7.7120e-01|  5.0000e-01|  5.0000e-01|  5.0000e-01|   -4.831978|   -4.896124|   -5.512832|   -5.529817|   -5.116350|   -8.030609|    2.302491|
|       10389|  6.1337e+00|  6.8780e-09|  7.7120e-01|  5.0000e-01|  5.0000e-01|  5.0000e-01|   -4.831236|   -4.895221|   -5.512418|   -5.529401|   -5.115600|   -8.030412|    2.302178|
|       10390|  6.1337e+00|  6.8776e-09|  7.7120e-01|  5.0000e-01|  5.0000e-01|  5.0000e-01|   -4.830499|   -4.894324|   -5.512004|   -5.528988|   -5.114855|   -8.030218|    2.301864|
|       10391|  6.1337e+00|  6.8773e-09|  7.7120e-01|  5.0000e-01|  5.0000e-01|  5.0000e-01|   -4.829767|   -4.893433|   -5.511593|   -5.528578|   -5.114114|   -8.030027|    2.301551|
|       10392|  6.1337e+00|  6.8770e-09|  7.7120e-01|  5.0000e-01|  5.0000e-01|  5.0000e-01|   -4.829043|   -4.892551|   -5.511187|   -5.528170|   -5.113379|   -8.029839|    2.301238|
|       10393|  6.1337e+00|  6.8766e-09|  7.7120e-01|  5.0000e-01|  5.0000e-01|  5.0000e-01|   -4.828324|   -4.891675|   -5.510781|   -5.527764|   -5.112647|   -8.029654|    2.300926|
|       10394|  6.1337e+00|  6.8763e-09|  7.7120e-01|  5.0000e-01|  5.0000e-01|  5.0000e-01|   -4.827610|   -4.890806|   -5.510376|   -5.527360|   -5.111920|   -8.029472|    2.300613|
|       10395|  6.1336e+00|  6.8760e-09|  7.7120e-01|  5.0000e-01|  5.0000e-01|  5.0000e-01|   -4.826903|   -4.889943|   -5.509972|   -5.526961|   -5.111198|   -8.029292|    2.300301|
|       10396|  6.1336e+00|  6.8756e-09|  7.7120e-01|  5.0000e-01|  5.0000e-01|  5.0000e-01|   -4.826201|   -4.889088|   -5.509570|   -5.526566|   -5.110480|   -8.029115|    2.299988|
|       10397|  6.1336e+00|  6.8753e-09|  7.7120e-01|  5.0000e-01|  5.0000e-01|  5.0000e-01|   -4.825506|   -4.888240|   -5.509172|   -5.526175|   -5.109768|   -8.028941|    2.299676|
|       10398|  6.1336e+00|  6.8750e-09|  7.7120e-01|  5.0000e-01|  5.0000e-01|  5.0000e-01|   -4.824819|   -4.887400|   -5.508775|   -5.525790|   -5.109062|   -8.028769|    2.299364|
|       10399|  6.1336e+00|  6.8746e-09|  7.7120e-01|  5.0000e-01|  5.0000e-01|  5.0000e-01|   -4.824137|   -4.886568|   -5.508379|   -5.525407|   -5.108360|   -8.028599|    2.299053|
|       10400|  6.1336e+00|  6.8743e-09|  7.7120e-01|  5.0000e-01|  5.0000e-01|  5.0000e-01|   -4.823462|   -4.885743|   -5.507985|   -5.525029|   -5.107665|   -8.028432|    2.298741|
|       10401|  6.1336e+00|  6.8740e-09|  7.7120e-01|  5.0000e-01|  5.0000e-01|  5.0000e-01|   -4.822794|   -4.884926|   -5.507591|   -5.524655|   -5.106974|   -8.028267|    2.298430|
|       10402|  6.1336e+00|  6.8737e-09|  7.7120e-01|  5.0000e-01|  5.0000e-01|  5.0000e-01|   -4.822130|   -4.884115|   -5.507199|   -5.524285|   -5.106287|   -8.028104|    2.298119|
|       10403|  6.1336e+00|  6.8734e-09|  7.7120e-01|  5.0000e-01|  5.0000e-01|  5.0000e-01|   -4.821473|   -4.883312|   -5.506807|   -5.523919|   -5.105605|   -8.027943|    2.297807|
|       10404|  6.1335e+00|  6.8730e-09|  7.7120e-01|  5.0000e-01|  5.0000e-01|  5.0000e-01|   -4.820822|   -4.882515|   -5.506416|   -5.523558|   -5.104928|   -8.027784|    2.297497|
|       10405|  6.1335e+00|  6.8727e-09|  7.7120e-01|  5.0000e-01|  5.0000e-01|  5.0000e-01|   -4.820178|   -4.881726|   -5.506028|   -5.523204|   -5.104257|   -8.027627|    2.297186|
|       10406|  6.1335e+00|  6.8724e-09|  7.7120e-01|  5.0000e-01|  5.0000e-01|  5.0000e-01|   -4.819541|   -4.880946|   -5.505642|   -5.522853|   -5.103592|   -8.027472|    2.296875|
|       10407|  6.1335e+00|  6.8721e-09|  7.7120e-01|  5.0000e-01|  5.0000e-01|  5.0000e-01|   -4.818912|   -4.880174|   -5.505259|   -5.522508|   -5.102934|   -8.027319|    2.296565|
|       10408|  6.1335e+00|  6.8718e-09|  7.7120e-01|  5.0000e-01|  5.0000e-01|  5.0000e-01|   -4.818291|   -4.879411|   -5.504881|   -5.522169|   -5.102284|   -8.027167|    2.296255|
|       10409|  6.1335e+00|  6.8715e-09|  7.7120e-01|  5.0000e-01|  5.0000e-01|  5.0000e-01|   -4.817678|   -4.878655|   -5.504506|   -5.521836|   -5.101640|   -8.027017|    2.295945|
|       10410|  6.1335e+00|  6.8711e-09|  7.7120e-01|  5.0000e-01|  5.0000e-01|  5.0000e-01|   -4.817071|   -4.877907|   -5.504133|   -5.521507|   -5.101001|   -8.026869|    2.295635|
|       10411|  6.1335e+00|  6.8708e-09|  7.7120e-01|  5.0000e-01|  5.0000e-01|  5.0000e-01|   -4.816471|   -4.877166|   -5.503762|   -5.521183|   -5.100368|   -8.026722|    2.295326|
|       10412|  6.1335e+00|  6.8705e-09|  7.7120e-01|  5.0000e-01|  5.0000e-01|  5.0000e-01|   -4.815879|   -4.876433|   -5.503393|   -5.520864|   -5.099742|   -8.026576|    2.295016|
|       10413|  6.1334e+00|  6.8702e-09|  7.7120e-01|  5.0000e-01|  5.0000e-01|  5.0000e-01|   -4.815289|   -4.875704|   -5.503023|   -5.520551|   -5.099117|   -8.026432|    2.294707|
|       10414|  6.1334e+00|  6.8699e-09|  7.7120e-01|  5.0000e-01|  5.0000e-01|  5.0000e-01|   -4.814706|   -4.874981|   -5.502654|   -5.520242|   -5.098496|   -8.026289|    2.294398|
|       10415|  6.1334e+00|  6.8696e-09|  7.7120e-01|  5.0000e-01|  5.0000e-01|  5.0000e-01|   -4.814128|   -4.874266|   -5.502284|   -5.519939|   -5.097880|   -8.026147|    2.294089|
|       10416|  6.1334e+00|  6.8693e-09|  7.7120e-01|  5.0000e-01|  5.0000e-01|  5.0000e-01|   -4.813558|   -4.873559|   -5.501915|   -5.519639|   -5.097270|   -8.026006|    2.293780|
|       10417|  6.1334e+00|  6.8690e-09|  7.7120e-01|  5.0000e-01|  5.0000e-01|  5.0000e-01|   -4.812995|   -4.872860|   -5.501548|   -5.519344|   -5.096667|   -8.025866|    2.293472|
|       10418|  6.1334e+00|  6.8687e-09|  7.7120e-01|  5.0000e-01|  5.0000e-01|  5.0000e-01|   -4.812439|   -4.872169|   -5.501181|   -5.519053|   -5.096069|   -8.025727|    2.293163|
|       10419|  6.1334e+00|  6.8684e-09|  7.7120e-01|  5.0000e-01|  5.0000e-01|  5.0000e-01|   -4.811889|   -4.871486|   -5.500815|   -5.518765|   -5.095477|   -8.025589|    2.292855|
|       10420|  6.1333e+00|  6.8681e-09|  7.7120e-01|  5.0000e-01|  5.0000e-01|  5.0000e-01|   -4.811347|   -4.870812|   -5.500451|   -5.518482|   -5.094892|   -8.025451|    2.292547|
|       10421|  6.1333e+00|  6.8678e-09|  7.7120e-01|  5.0000e-01|  5.0000e-01|  5.0000e-01|   -4.810812|   -4.870146|   -5.500086|   -5.518202|   -5.094312|   -8.025314|    2.292240|
|       10422|  6.1333e+00|  6.8675e-09|  7.7120e-01|  5.0000e-01|  5.0000e-01|  5.0000e-01|   -4.810282|   -4.869487|   -5.499721|   -5.517926|   -5.093736|   -8.025177|    2.291932|
|       10423|  6.1333e+00|  6.8672e-09|  7.7120e-01|  5.0000e-01|  5.0000e-01|  5.0000e-01|   -4.809759|   -4.868835|   -5.499357|   -5.517653|   -5.093167|   -8.025040|    2.291625|
|       10424|  6.1333e+00|  6.8669e-09|  7.7120e-01|  5.0000e-01|  5.0000e-01|  5.0000e-01|   -4.809243|   -4.868192|   -5.498994|   -5.517385|   -5.092604|   -8.024904|    2.291318|
|       10425|  6.1333e+00|  6.8666e-09|  7.7120e-01|  5.0000e-01|  5.0000e-01|  5.0000e-01|   -4.808735|   -4.867558|   -5.498631|   -5.517122|   -5.092048|   -8.024768|    2.291011|
|       10426|  6.1332e+00|  6.8663e-09|  7.7120e-01|  5.0000e-01|  5.0000e-01|  5.0000e-01|   -4.808233|   -4.866931|   -5.498269|   -5.516864|   -5.091498|   -8.024633|    2.290704|
|       10427|  6.1332e+00|  6.8661e-09|  7.7120e-01|  5.0000e-01|  5.0000e-01|  5.0000e-01|   -4.807738|   -4.866312|   -5.497911|   -5.516612|   -5.090954|   -8.024497|    2.290397|
|       10428|  6.1332e+00|  6.8658e-09|  7.7120e-01|  5.0000e-01|  5.0000e-01|  5.0000e-01|   -4.807251|   -4.865701|   -5.497554|   -5.516366|   -5.090417|   -8.024361|    2.290091|
|       10429|  6.1332e+00|  6.8655e-09|  7.7120e-01|  5.0000e-01|  5.0000e-01|  5.0000e-01|   -4.806770|   -4.865098|   -5.497199|   -5.516125|   -5.089886|   -8.024225|    2.289785|
|       10430|  6.1332e+00|  6.8652e-09|  7.7120e-01|  5.0000e-01|  5.0000e-01|  5.0000e-01|   -4.806296|   -4.864502|   -5.496847|   -5.515892|   -5.089361|   -8.024088|    2.289479|
|       10431|  6.1332e+00|  6.8649e-09|  7.7120e-01|  5.0000e-01|  5.0000e-01|  5.0000e-01|   -4.805830|   -4.863914|   -5.496498|   -5.515664|   -5.088842|   -8.023951|    2.289173|
|       10432|  6.1332e+00|  6.8647e-09|  7.7120e-01|  5.0000e-01|  5.0000e-01|  5.0000e-01|   -4.805370|   -4.863333|   -5.496151|   -5.515442|   -5.088330|   -8.023814|    2.288868|
|       10433|  6.1331e+00|  6.8644e-09|  7.7120e-01|  5.0000e-01|  5.0000e-01|  5.0000e-01|   -4.804916|   -4.862759|   -5.495804|   -5.515224|   -5.087822|   -8.023676|    2.288562|
|       10434|  6.1331e+00|  6.8641e-09|  7.7120e-01|  5.0000e-01|  5.0000e-01|  5.0000e-01|   -4.804469|   -4.862194|   -5.495456|   -5.515010|   -5.087320|   -8.023538|    2.288257|
|       10435|  6.1331e+00|  6.8638e-09|  7.7120e-01|  5.0000e-01|  5.0000e-01|  5.0000e-01|   -4.804028|   -4.861636|   -5.495109|   -5.514800|   -5.086825|   -8.023399|    2.287952|
|       10436|  6.1331e+00|  6.8636e-09|  7.7120e-01|  5.0000e-01|  5.0000e-01|  5.0000e-01|   -4.803594|   -4.861087|   -5.494763|   -5.514595|   -5.086335|   -8.023259|    2.287648|
|       10437|  6.1331e+00|  6.8633e-09|  7.7120e-01|  5.0000e-01|  5.0000e-01|  5.0000e-01|   -4.803166|   -4.860544|   -5.494419|   -5.514394|   -5.085851|   -8.023118|    2.287343|
|       10438|  6.1331e+00|  6.8630e-09|  7.7120e-01|  5.0000e-01|  5.0000e-01|  5.0000e-01|   -4.802746|   -4.860010|   -5.494075|   -5.514199|   -5.085374|   -8.022976|    2.287039|
|       10439|  6.1330e+00|  6.8627e-09|  7.7120e-01|  5.0000e-01|  5.0000e-01|  5.0000e-01|   -4.802332|   -4.859484|   -5.493731|   -5.514008|   -5.084903|   -8.022833|    2.286735|
|       10440|  6.1330e+00|  6.8625e-09|  7.7120e-01|  5.0000e-01|  5.0000e-01|  5.0000e-01|   -4.801924|   -4.858964|   -5.493386|   -5.513820|   -5.084436|   -8.022688|    2.286431|
|       10441|  6.1330e+00|  6.8622e-09|  7.7120e-01|  5.0000e-01|  5.0000e-01|  5.0000e-01|   -4.801518|   -4.858447|   -5.493040|   -5.513635|   -5.083970|   -8.022543|    2.286128|
|       10442|  6.1330e+00|  6.8620e-09|  7.7120e-01|  5.0000e-01|  5.0000e-01|  5.0000e-01|   -4.801119|   -4.857938|   -5.492695|   -5.513457|   -5.083512|   -8.022396|    2.285824|
|       10443|  6.1330e+00|  6.8617e-09|  7.7120e-01|  5.0000e-01|  5.0000e-01|  5.0000e-01|   -4.800726|   -4.857435|   -5.492350|   -5.513282|   -5.083057|   -8.022248|    2.285521|
|       10444|  6.1330e+00|  6.8614e-09|  7.7120e-01|  5.0000e-01|  5.0000e-01|  5.0000e-01|   -4.800338|   -4.856939|   -5.492007|   -5.513113|   -5.082609|   -8.022098|    2.285219|
|       10445|  6.1330e+00|  6.8612e-09|  7.7120e-01|  5.0000e-01|  5.0000e-01|  5.0000e-01|   -4.799958|   -4.856452|   -5.491666|   -5.512948|   -5.082168|   -8.021946|    2.284916|
|       10446|  6.1329e+00|  6.8609e-09|  7.7120e-01|  5.0000e-01|  5.0000e-01|  5.0000e-01|   -4.799584|   -4.855971|   -5.491325|   -5.512787|   -5.081731|   -8.021793|    2.284614|
|       10447|  6.1329e+00|  6.8607e-09|  7.7120e-01|  5.0000e-01|  5.0000e-01|  5.0000e-01|   -4.799215|   -4.855498|   -5.490984|   -5.512630|   -5.081300|   -8.021638|    2.284311|
|       10448|  6.1329e+00|  6.8604e-09|  7.7120e-01|  5.0000e-01|  5.0000e-01|  5.0000e-01|   -4.798852|   -4.855032|   -5.490643|   -5.512476|   -5.080874|   -8.021481|    2.284010|
|       10449|  6.1329e+00|  6.8602e-09|  7.7120e-01|  5.0000e-01|  5.0000e-01|  5.0000e-01|   -4.798496|   -4.854573|   -5.490305|   -5.512327|   -5.080454|   -8.021322|    2.283708|
|       10450|  6.1329e+00|  6.8599e-09|  7.7120e-01|  5.0000e-01|  5.0000e-01|  5.0000e-01|   -4.798146|   -4.854121|   -5.489970|   -5.512184|   -5.080040|   -8.021161|    2.283407|
|       10451|  6.1328e+00|  6.8597e-09|  7.7120e-01|  5.0000e-01|  5.0000e-01|  5.0000e-01|   -4.797802|   -4.853676|   -5.489637|   -5.512044|   -5.079632|   -8.020999|    2.283105|
|       10452|  6.1328e+00|  6.8594e-09|  7.7120e-01|  5.0000e-01|  5.0000e-01|  5.0000e-01|   -4.797463|   -4.853238|   -5.489306|   -5.511907|   -5.079229|   -8.020835|    2.282805|
|       10453|  6.1328e+00|  6.8592e-09|  7.7120e-01|  5.0000e-01|  5.0000e-01|  5.0000e-01|   -4.797131|   -4.852807|   -5.488979|   -5.511774|   -5.078832|   -8.020668|    2.282504|
|       10454|  6.1328e+00|  6.8589e-09|  7.7120e-01|  5.0000e-01|  5.0000e-01|  5.0000e-01|   -4.796804|   -4.852383|   -5.488653|   -5.511646|   -5.078441|   -8.020499|    2.282203|
|       10455|  6.1328e+00|  6.8587e-09|  7.7120e-01|  5.0000e-01|  5.0000e-01|  5.0000e-01|   -4.796484|   -4.851966|   -5.488327|   -5.511523|   -5.078055|   -8.020328|    2.281903|
|       10456|  6.1328e+00|  6.8585e-09|  7.7120e-01|  5.0000e-01|  5.0000e-01|  5.0000e-01|   -4.796169|   -4.851555|   -5.488001|   -5.511403|   -5.077675|   -8.020154|    2.281603|
|       10457|  6.1328e+00|  6.8582e-09|  7.7120e-01|  5.0000e-01|  5.0000e-01|  5.0000e-01|   -4.795860|   -4.851151|   -5.487676|   -5.511286|   -5.077300|   -8.019977|    2.281304|
|       10458|  6.1328e+00|  6.8580e-09|  7.7120e-01|  5.0000e-01|  5.0000e-01|  5.0000e-01|   -4.795558|   -4.850754|   -5.487352|   -5.511174|   -5.076931|   -8.019797|    2.281005|
|       10459|  6.1328e+00|  6.8578e-09|  7.7120e-01|  5.0000e-01|  5.0000e-01|  5.0000e-01|   -4.795262|   -4.850365|   -5.487029|   -5.511065|   -5.076569|   -8.019615|    2.280705|
|       10460|  6.1328e+00|  6.8575e-09|  7.7120e-01|  5.0000e-01|  5.0000e-01|  5.0000e-01|   -4.794970|   -4.849981|   -5.486706|   -5.510958|   -5.076210|   -8.019430|    2.280407|
|       10461|  6.1328e+00|  6.8573e-09|  7.7120e-01|  5.0000e-01|  5.0000e-01|  5.0000e-01|   -4.794684|   -4.849604|   -5.486385|   -5.510855|   -5.075857|   -8.019242|    2.280108|
|       10462|  6.1328e+00|  6.8571e-09|  7.7120e-01|  5.0000e-01|  5.0000e-01|  5.0000e-01|   -4.794403|   -4.849234|   -5.486064|   -5.510753|   -5.075509|   -8.019051|    2.279810|
|       10463|  6.1328e+00|  6.8569e-09|  7.7120e-01|  5.0000e-01|  5.0000e-01|  5.0000e-01|   -4.794127|   -4.848869|   -5.485743|   -5.510653|   -5.075165|   -8.018857|    2.279512|
|       10464|  6.1328e+00|  6.8566e-09|  7.7120e-01|  5.0000e-01|  5.0000e-01|  5.0000e-01|   -4.793856|   -4.848510|   -5.485422|   -5.510555|   -5.074826|   -8.018660|    2.279214|
|       10465|  6.1327e+00|  6.8564e-09|  7.7120e-01|  5.0000e-01|  5.0000e-01|  5.0000e-01|   -4.793586|   -4.848154|   -5.485100|   -5.510459|   -5.074487|   -8.018459|    2.278917|
|       10466|  6.1327e+00|  6.8562e-09|  7.7120e-01|  5.0000e-01|  5.0000e-01|  5.0000e-01|   -4.793321|   -4.847802|   -5.484780|   -5.510366|   -5.074152|   -8.018256|    2.278620|
|       10467|  6.1327e+00|  6.8560e-09|  7.7120e-01|  5.0000e-01|  5.0000e-01|  5.0000e-01|   -4.793061|   -4.847457|   -5.484460|   -5.510276|   -5.073823|   -8.018049|    2.278323|
|       10468|  6.1327e+00|  6.8558e-09|  7.7120e-01|  5.0000e-01|  5.0000e-01|  5.0000e-01|   -4.792806|   -4.847118|   -5.484141|   -5.510188|   -5.073498|   -8.017839|    2.278026|
|       10469|  6.1327e+00|  6.8556e-09|  7.7120e-01|  5.0000e-01|  5.0000e-01|  5.0000e-01|   -4.792555|   -4.846785|   -5.483822|   -5.510101|   -5.073177|   -8.017626|    2.277730|
|       10470|  6.1327e+00|  6.8553e-09|  7.7120e-01|  5.0000e-01|  5.0000e-01|  5.0000e-01|   -4.792309|   -4.846457|   -5.483503|   -5.510016|   -5.072861|   -8.017409|    2.277434|
|       10471|  6.1327e+00|  6.8551e-09|  7.7120e-01|  5.0000e-01|  5.0000e-01|  5.0000e-01|   -4.792068|   -4.846136|   -5.483188|   -5.509933|   -5.072549|   -8.017189|    2.277138|
|       10472|  6.1327e+00|  6.8549e-09|  7.7120e-01|  5.0000e-01|  5.0000e-01|  5.0000e-01|   -4.791831|   -4.845819|   -5.482874|   -5.509852|   -5.072242|   -8.016965|    2.276843|
|       10473|  6.1326e+00|  6.8547e-09|  7.7120e-01|  5.0000e-01|  5.0000e-01|  5.0000e-01|   -4.791599|   -4.845509|   -5.482561|   -5.509774|   -5.071940|   -8.016738|    2.276548|
|       10474|  6.1326e+00|  6.8545e-09|  7.7120e-01|  5.0000e-01|  5.0000e-01|  5.0000e-01|   -4.791371|   -4.845204|   -5.482250|   -5.509699|   -5.071642|   -8.016507|    2.276253|
|       10475|  6.1326e+00|  6.8543e-09|  7.7120e-01|  5.0000e-01|  5.0000e-01|  5.0000e-01|   -4.791149|   -4.844904|   -5.481942|   -5.509627|   -5.071350|   -8.016273|    2.275958|
|       10476|  6.1326e+00|  6.8541e-09|  7.7120e-01|  5.0000e-01|  5.0000e-01|  5.0000e-01|   -4.790931|   -4.844611|   -5.481638|   -5.509556|   -5.071062|   -8.016035|    2.275664|
|       10477|  6.1326e+00|  6.8539e-09|  7.7120e-01|  5.0000e-01|  5.0000e-01|  5.0000e-01|   -4.790718|   -4.844322|   -5.481334|   -5.509487|   -5.070778|   -8.015794|    2.275370|
|       10478|  6.1326e+00|  6.8537e-09|  7.7120e-01|  5.0000e-01|  5.0000e-01|  5.0000e-01|   -4.790509|   -4.844039|   -5.481030|   -5.509419|   -5.070499|   -8.015549|    2.275077|
|       10479|  6.1326e+00|  6.8535e-09|  7.7120e-01|  5.0000e-01|  5.0000e-01|  5.0000e-01|   -4.790304|   -4.843761|   -5.480729|   -5.509351|   -5.070224|   -8.015300|    2.274784|
|       10480|  6.1326e+00|  6.8533e-09|  7.7120e-01|  5.0000e-01|  5.0000e-01|  5.0000e-01|   -4.790103|   -4.843489|   -5.480431|   -5.509286|   -5.069953|   -8.015048|    2.274491|

scontrol show job 1072101
JobId=1072101 JobName=m6_fine
   UserId=anthonyy(3152141) GroupId=anthonyy(3152141) MCS_label=N/A
   Priority=814082 Nice=0 Account=rrg-jphickey QOS=normal
   JobState=COMPLETING Reason=TimeLimit Dependency=(null)
   Requeue=0 Restarts=0 BatchFlag=1 Reboot=0 ExitCode=0:15
   RunTime=18:00:30 TimeLimit=18:00:00 TimeMin=N/A
   SubmitTime=2026-02-27T02:30:55 EligibleTime=2026-02-27T02:30:55
   AccrueTime=2026-02-27T02:30:55
   StartTime=2026-02-27T02:39:35 EndTime=2026-02-27T20:40:05 Deadline=N/A
   SuspendTime=None SecsPreSuspend=0 LastSchedEval=2026-02-27T02:39:35 Scheduler=Backfill
   Partition=compute AllocNode:Sid=tri-login02:7576
   ReqNodeList=(null) ExcNodeList=(null)
   NodeList=tri[0418-0419]
   BatchHost=tri0418
   NumNodes=2 NumCPUs=384 NumTasks=128 CPUs/Task=1 ReqB:S:C:T=0:0:*:*
   ReqTRES=cpu=128,mem=1534000M,node=2,billing=128
   AllocTRES=cpu=384,mem=1534000M,node=2,billing=384
   Socks/Node=* NtasksPerN:B:S:C=64:0:*:* CoreSpec=*
   MinCPUsNode=64 MinMemoryNode=767000M MinTmpDiskNode=0
   Features=(null) DelayBoot=00:00:00
   OverSubscribe=NO Contiguous=0 Licenses=(null) Network=(null)
   Command=/scratch/anthonyy/reentry/orion/cases/m6_aoa15/run.sh
   WorkDir=/scratch/anthonyy/reentry/orion/cases/m6_aoa15
   Comment=/opt/slurm/bin/sbatch --export=NONE --get-user-env=L run.sh 
   StdErr=/scratch/anthonyy/reentry/orion/cases/m6_aoa15/orion_1072101.err
   StdIn=/dev/null
   StdOut=/scratch/anthonyy/reentry/orion/cases/m6_aoa15/orion_1072101.out
   TresPerTask=cpu=1
   

sacct -j 1072101
JobID           JobName    Account    Elapsed  MaxVMSize     MaxRSS  SystemCPU    UserCPU ExitCode 
------------ ---------- ---------- ---------- ---------- ---------- ---------- ---------- -------- 
1072101         m6_fine rrg-jphic+   18:00:30                         09:18:20 94-17:07:+      0:0 
1072101.bat+      batch rrg-jphic+   18:00:31          0      9548K  00:00.144  00:00.608     0:15 
1072101.ext+     extern rrg-jphic+   18:00:30                         00:00:00   00:00:00      0:0 
1072101.0       SU2_CFD rrg-jphic+   18:00:23          0   7696740K   09:18:19 94-17:07:+     0:15 

