Nodes: tri[0278,1075]
Tasks: 128
NPN:   64

-------------------------------------------------------------------------
|    ___ _   _ ___                                                      |
|   / __| | | |_  )   Release 7.5.1 "Blackbird"                         |
|   \__ \ |_| |/ /                                                      |
|   |___/\___//___|   Suite (Computational Fluid Dynamics Code)         |
|                                                                       |
-------------------------------------------------------------------------
| SU2 Project Website: https://su2code.github.io                        |
|                                                                       |
| The SU2 Project is maintained by the SU2 Foundation                   |
| (http://su2foundation.org)                                            |
-------------------------------------------------------------------------
| Copyright 2012-2023, SU2 Contributors                                 |
|                                                                       |
| SU2 is free software; you can redistribute it and/or                  |
| modify it under the terms of the GNU Lesser General Public            |
| License as published by the Free Software Foundation; either          |
| version 2.1 of the License, or (at your option) any later version.    |
|                                                                       |
| SU2 is distributed in the hope that it will be useful,                |
| but WITHOUT ANY WARRANTY; without even the implied warranty of        |
| MERCHANTABILITY or FITNESS FOR A PARTICULAR PURPOSE. See the GNU      |
| Lesser General Public License for more details.                       |
|                                                                       |
| You should have received a copy of the GNU Lesser General Public      |
| License along with SU2. If not, see <http://www.gnu.org/licenses/>.   |
-------------------------------------------------------------------------

Parsing config file for zone 0

----------------- Physical Case Definition ( Zone 0 ) -------------------
Compressible RANS equations.
Turbulence model: Spalart-Allmaras-noft2
Hybrid RANS/LES: No Hybrid RANS/LES
Mach number: 6.
Angle of attack (AoA): 15 deg, and angle of sideslip (AoS): 0 deg.
Reynolds number: 6.86229e+08. Reference length 5.
Reading and writing binary SU2 native restart files.
Read flow solution from: restart_flow.dat.
Non-Dimensional simulation (V=1.0, Rho=1.0, T=1.0 at the farfield).
The reference area will be computed using y(2D) or z(3D) projection.
The semi-span will be computed using the max y(3D) value.
The reference length is 0.64607 m.
Reference origin for moment evaluation is (0.25, 0, 0).
Surface(s) where the force coefficients are evaluated: ORION_SURFACE.

Input mesh file name: fine.su2

--------------- Space Numerical Integration ( Zone 0 ) ------------------
Jameson-Schmidt-Turkel scheme (2nd order in space) for the flow inviscid terms.
JST viscous coefficients (2nd & 4th): 0.5, 0.02.
The method includes a grid stretching correction (p = 0.3).
Scalar upwind solver for the turbulence model.
First order integration in space.
Average of gradients with correction (viscous flow terms).
Average of gradients with correction (viscous turbulence terms).
Gradient for upwind reconstruction: Green-Gauss.
Gradient for viscous and source terms: Green-Gauss.

--------------- Time Numerical Integration  ( Zone 0 ) ------------------
Local time stepping (steady state simulation).
Euler implicit method for the flow equations.
FGMRES is used for solving the linear system.
Using a ILU(0) preconditioning.
Convergence criteria of the linear solver: 1e-06.
Max number of linear iterations: 100.
CFL adaptation. Factor down: 0.5, factor up: 1.1,
                lower limit: 0.05, upper limit: 0.5,
                acceptable linear residual: 0.001.
Courant-Friedrichs-Lewy number:     0.03
Euler implicit time integration for the turbulence model.

------------------ Convergence Criteria  ( Zone 0 ) ---------------------
Maximum number of solver subiterations: 999999.
Begin convergence monitoring at iteration 5.
Residual minimum value: 1e-8.
Cauchy series min. value: 1e-10.
Number of Cauchy elements: 100.
Begin windowed time average at iteration 0.

-------------------- Output Information ( Zone 0 ) ----------------------
File writing frequency: 
+------------------------------------+
|                     File| Frequency|
+------------------------------------+
|                  RESTART|       150|
|                 PARAVIEW|       150|
|         SURFACE_PARAVIEW|       150|
+------------------------------------+
Writing the convergence history file every 1 inner iterations.
Writing the screen convergence history every 1 inner iterations.
The tabular file format is CSV (.csv).
Convergence history file name: history.
Forces breakdown file name: forces_breakdown.dat.
Surface file name: surface_flow.
Volume file name: flow.
Restart file name: restart_flow.

------------- Config File Boundary Information ( Zone 0 ) ---------------
+-----------------------------------------------------------------------+
|                        Marker Type|                        Marker Name|
+-----------------------------------------------------------------------+
|                          Far-field|                           FARFIELD|
+-----------------------------------------------------------------------+
|                     Heat flux wall|                      ORION_SURFACE|
+-----------------------------------------------------------------------+

-------------------- Output Preprocessing ( Zone 0 ) --------------------

WARNING: SURFACE_PRESSURE_DROP can only be computed for at least 2 surfaces (outlet, inlet, ...)

Screen output fields: INNER_ITER, WALL_TIME, MIN_DELTA_TIME, MAX_DELTA_TIME, MIN_CFL, MAX_CFL, AVG_CFL, RMS_DENSITY, RMS_MOMENTUM-X, RMS_MOMENTUM-Y, RMS_MOMENTUM-Z, RMS_ENERGY, RMS_NU_TILDE, DRAG
History output group(s): ITER, RMS_RES
Convergence field(s): RMS_DENSITY
Warning: No (valid) fields chosen for time convergence monitoring. Time convergence monitoring inactive.
Volume output fields: MACH, PRESSURE, TEMPERATURE, DENSITY, HEAT_FLUX, Y_PLUS, COORDINATES, SOLUTION

------------------- Geometry Preprocessing ( Zone 0 ) -------------------
Three dimensional problem.
62211324 grid points before partitioning.
190879888 volume elements before partitioning.
2 surface markers.
4104 boundary elements in index 0 (Marker = FARFIELD).
1824836 boundary elements in index 1 (Marker = ORION_SURFACE).
Executing the partitioning functions.
Building the graph adjacency structure.
Calling ParMETIS... graph partitioning complete (4959327 edge cuts).
Distributing ParMETIS coloring.
Rebalancing vertices.
Rebalancing volume element connectivity.
Rebalancing markers and surface elements.
66952290 vertices including ghost points. 
197997438 interior elements including halo cells. 
103171259 tetrahedra.
94500655 prisms.
325524 pyramids.
Establishing MPI communication patterns.
Setting point connectivity.
Renumbering points (Reverse Cuthill McKee Ordering).
Recomputing point connectivity.
Setting element connectivity.
Checking the numerical grid orientation.
All volume elements are correctly orientend.
All surface elements are correctly orientend.
Identifying edges and vertices.
Setting the control volume structure.
Volume of the computational grid: 535693.
Searching for the closest normal neighbors to the surfaces.
Storing a mapping from global to local point index.
Compute the surface curvature.
Max K: 132.896. Mean K: 3.9104. Standard deviation K: 7.49569.
Checking for periodicity.
Computing mesh quality statistics for the dual control volumes.
+--------------------------------------------------------------+
|           Mesh Quality Metric|        Minimum|        Maximum|
+--------------------------------------------------------------+
|    Orthogonality Angle (deg.)|        53.0661|             90|
|     CV Face Area Aspect Ratio|        1.01143|        75298.5|
|           CV Sub-Volume Ratio|        1.00029|        45.0258|
+--------------------------------------------------------------+
Finding max control volume width.
Communicating number of neighbors.
Reference area = 11.531 m^2.
Semi-span length = 2.49999 m.
Wetted area = 57.9072 m^2.
Area projection in the x-plane = 19.6343 m^2, y-plane = 11.531 m^2, z-plane = 11.531 m^2.
Max. coordinate in the x-direction = 2.575 m, y-direction = 2.49999 m, z-direction = 2.49999 m.
Min. coordinate in the x-direction = -0.71 m, y-direction = -2.49999 m, z-direction = -2.5 m.
Computing wall distances.

-------------------- Solver Preprocessing ( Zone 0 ) --------------------
Viscous flow: Computing pressure using the ideal gas law
based on the free-stream temperature and a density computed
from the Reynolds number.
Force coefficients computed using free-stream values.

-- Models:
+------------------------------------------------------------------------------+
|          Viscosity Model|        Conductivity Model|              Fluid Model|
+------------------------------------------------------------------------------+
|               SUTHERLAND|          CONSTANT_PRANDTL|             STANDARD_AIR|
+------------------------------------------------------------------------------+
-- Fluid properties:
+------------------------------------------------------------------------------+
|                  Name|    Dim. value|    Ref. value|      Unit|Non-dim. value|
+------------------------------------------------------------------------------+
|        Ref. Viscosity|     1.716e-05|       2455.73|   N.s/m^2|   6.98773e-09|
|      Sutherland Temp.|        273.15|        288.15|         K|      0.947944|
|     Sutherland Const.|         110.4|        288.15|         K|      0.383134|
+------------------------------------------------------------------------------+
|        Prandtl (Lam.)|             -|             -|         -|          0.72|
|       Prandtl (Turb.)|             -|             -|         -|           0.9|
+------------------------------------------------------------------------------+
|          Gas Constant|       287.058|       14467.7|  N.m/kg.K|     0.0198413|
|      Spec. Heat Ratio|             -|             -|         -|           1.4|
+------------------------------------------------------------------------------+
-- Initial and free-stream conditions:
+------------------------------------------------------------------------------+
|                  Name|    Dim. value|    Ref. value|      Unit|Non-dim. value|
+------------------------------------------------------------------------------+
|       Static Pressure|       99485.6|   5.01407e+06|        Pa|     0.0198413|
|               Density|       1.20274|       1.20274|    kg/m^3|             1|
|           Temperature|        288.15|        288.15|         K|             1|
|          Total Energy|   2.29123e+06|   4.16887e+06|   m^2/s^2|      0.549603|
|            Velocity-X|       1972.21|       2041.78|       m/s|      0.965926|
|            Velocity-Y|             0|       2041.78|       m/s|             0|
|            Velocity-Z|       528.452|       2041.78|       m/s|      0.258819|
|    Velocity Magnitude|       2041.78|       2041.78|       m/s|             1|
+------------------------------------------------------------------------------+
|             Viscosity|    1.7893e-05|       2455.73|   N.s/m^2|    7.2862e-09|
|          Conductivity|             -|   3.55289e+07|   W/m^2.K|             -|
|     Turb. Kin. Energy|       15633.3|   4.16887e+06|   m^2/s^2|       0.00375|
|     Spec. Dissipation|   1.05085e+08|       2041.78|       1/s|       51467.1|
+------------------------------------------------------------------------------+
|           Mach Number|             -|             -|         -|             6|
|       Reynolds Number|             -|             -|         -|   6.86229e+08|
+------------------------------------------------------------------------------+
Initialize Jacobian structure (Navier-Stokes). MG level: 0.
Initialize Jacobian structure (SA model).

------------------- Numerics Preprocessing ( Zone 0 ) -------------------

----------------- Integration Preprocessing ( Zone 0 ) ------------------

------------------- Iteration Preprocessing ( Zone 0 ) ------------------
Euler/Navier-Stokes/RANS fluid iteration.

------------------------------ Begin Solver -----------------------------

Simulation Run using the Single-zone Driver
WARNING: SU2 was not compiled for an AVX-capable architecture. Performance could be better,
         see https://su2code.github.io/docs_v7/Build-SU2-Linux-MacOS/#compiler-optimizations
+-------------------------------------------------------------------------------------------------------------------------------------------------------------------------------------+
|  Inner_Iter|   Time(sec)|      Min DT|      Max DT|     Min CFL|     Max CFL|     Avg CFL|    rms[Rho]|   rms[RhoU]|   rms[RhoV]|   rms[RhoW]|   rms[RhoE]|     rms[nu]|          CD|
+-------------------------------------------------------------------------------------------------------------------------------------------------------------------------------------+
|           0|  1.9164e+01|  3.0416e-10|  4.6272e-02|  5.0000e-02|  5.0000e-02|  5.0000e-02|   -4.914673|   -4.970344|   -5.626269|   -5.614684|   -5.196772|   -7.858731|    2.261324|
|           1|  1.2752e+01|  5.0693e-10|  7.7120e-02|  5.5000e-02|  5.5000e-02|  5.5000e-02|   -4.914661|   -4.970320|   -5.626305|   -5.614708|   -5.196782|   -7.858689|    2.261298|
|           2|  1.0435e+01|  5.5762e-10|  8.4832e-02|  6.0500e-02|  6.0500e-02|  6.0500e-02|   -4.914641|   -4.970280|   -5.626359|   -5.614743|   -5.196793|   -7.858666|    2.261268|
|           3|  9.2879e+00|  6.1338e-10|  9.3315e-02|  6.6550e-02|  6.6550e-02|  6.6550e-02|   -4.914617|   -4.970235|   -5.626417|   -5.614780|   -5.196804|   -7.858640|    2.261236|
|           4|  8.5793e+00|  6.7472e-10|  1.0265e-01|  7.3205e-02|  7.3205e-02|  7.3205e-02|   -4.914591|   -4.970186|   -5.626477|   -5.614820|   -5.196815|   -7.858611|    2.261201|
|           5|  8.1170e+00|  7.4219e-10|  1.1291e-01|  8.0526e-02|  8.0526e-02|  8.0526e-02|   -4.914562|   -4.970131|   -5.626541|   -5.614862|   -5.196826|   -7.858579|    2.261162|
|           6|  7.7859e+00|  8.1641e-10|  1.2420e-01|  8.8578e-02|  8.8578e-02|  8.8578e-02|   -4.914528|   -4.970071|   -5.626607|   -5.614905|   -5.196836|   -7.858544|    2.261119|
|           7|  7.5270e+00|  8.9806e-10|  1.3662e-01|  9.7436e-02|  9.7436e-02|  9.7436e-02|   -4.914491|   -4.970004|   -5.626676|   -5.614951|   -5.196845|   -7.858506|    2.261072|
|           8|  7.3284e+00|  9.8786e-10|  1.5029e-01|  1.0718e-01|  1.0718e-01|  1.0718e-01|   -4.914448|   -4.969930|   -5.626746|   -5.614998|   -5.196853|   -7.858464|    2.261021|
|           9|  7.1709e+00|  1.0866e-09|  1.6531e-01|  1.1790e-01|  1.1790e-01|  1.1790e-01|   -4.914400|   -4.969848|   -5.626817|   -5.615046|   -5.196858|   -7.858417|    2.260964|
|          10|  7.0521e+00|  1.1953e-09|  1.8185e-01|  1.2969e-01|  1.2969e-01|  1.2969e-01|   -4.914346|   -4.969757|   -5.626889|   -5.615094|   -5.196861|   -7.858365|    2.260902|
|          11|  6.9469e+00|  1.3148e-09|  2.0003e-01|  1.4266e-01|  1.4266e-01|  1.4266e-01|   -4.914284|   -4.969656|   -5.626959|   -5.615142|   -5.196859|   -7.858308|    2.260833|
|          12|  6.8645e+00|  1.4463e-09|  2.2003e-01|  1.5692e-01|  1.5692e-01|  1.5692e-01|   -4.914214|   -4.969544|   -5.627027|   -5.615189|   -5.196852|   -7.858245|    2.260758|
|          13|  6.8310e+00|  1.5910e-09|  2.4204e-01|  1.7261e-01|  1.7261e-01|  1.7261e-01|   -4.914134|   -4.969418|   -5.627090|   -5.615233|   -5.196838|   -7.858176|    2.260675|
|          14|  6.8037e+00|  1.7501e-09|  2.6624e-01|  1.8987e-01|  1.8987e-01|  1.8987e-01|   -4.914042|   -4.969279|   -5.627146|   -5.615274|   -5.196816|   -7.858099|    2.260583|
|          15|  6.7789e+00|  1.9251e-09|  2.9286e-01|  2.0886e-01|  2.0886e-01|  2.0886e-01|   -4.913937|   -4.969122|   -5.627193|   -5.615308|   -5.196783|   -7.858015|    2.260483|
|          16|  6.7629e+00|  2.1176e-09|  3.2215e-01|  2.2975e-01|  2.2975e-01|  2.2975e-01|   -4.913817|   -4.968947|   -5.627228|   -5.615334|   -5.196736|   -7.857921|    2.260373|
|          17|  6.7451e+00|  2.3293e-09|  3.5436e-01|  2.5272e-01|  2.5272e-01|  2.5272e-01|   -4.913679|   -4.968751|   -5.627246|   -5.615350|   -5.196673|   -7.857818|    2.260252|
|          18|  6.7297e+00|  2.5622e-09|  3.8980e-01|  2.7800e-01|  2.7800e-01|  2.7800e-01|   -4.913520|   -4.968530|   -5.627243|   -5.615351|   -5.196588|   -7.857704|    2.260118|
|          19|  6.7145e+00|  2.8185e-09|  4.2878e-01|  3.0580e-01|  3.0580e-01|  3.0580e-01|   -4.913337|   -4.968280|   -5.627213|   -5.615335|   -5.196478|   -7.857578|    2.259972|
|          20|  6.7047e+00|  3.1003e-09|  4.7166e-01|  3.3637e-01|  3.3637e-01|  3.3637e-01|   -4.913125|   -4.967998|   -5.627149|   -5.615295|   -5.196335|   -7.857438|    2.259811|
|          21|  6.6928e+00|  3.4103e-09|  5.1883e-01|  3.7001e-01|  3.7001e-01|  3.7001e-01|   -4.912879|   -4.967677|   -5.627045|   -5.615226|   -5.196153|   -7.857283|    2.259634|
|          22|  6.6773e+00|  3.7514e-09|  5.7071e-01|  4.0701e-01|  4.0701e-01|  4.0701e-01|   -4.912591|   -4.967310|   -5.626890|   -5.615121|   -5.195921|   -7.857112|    2.259440|
|          23|  6.6969e+00|  4.1265e-09|  6.2778e-01|  4.4772e-01|  4.4772e-01|  4.4772e-01|   -4.912256|   -4.966890|   -5.626676|   -5.614971|   -5.195628|   -7.856923|    2.259227|
|          24|  6.7164e+00|  4.5392e-09|  6.9056e-01|  4.9249e-01|  4.9249e-01|  4.9249e-01|   -4.911862|   -4.966406|   -5.626390|   -5.614767|   -5.195260|   -7.856713|    2.258993|
|          25|  6.7334e+00|  4.9931e-09|  7.5961e-01|  5.0000e-01|  5.0000e-01|  5.0000e-01|   -4.911399|   -4.965847|   -5.626020|   -5.614498|   -5.194802|   -7.856480|    2.258736|
|          26|  6.7473e+00|  5.0692e-09|  7.7120e-01|  5.0000e-01|  5.0000e-01|  5.0000e-01|   -4.910853|   -4.965198|   -5.625553|   -5.614151|   -5.194232|   -7.856293|    2.258475|
|          27|  6.7577e+00|  5.0692e-09|  7.7120e-01|  5.0000e-01|  5.0000e-01|  5.0000e-01|   -4.910291|   -4.964530|   -5.625080|   -5.613793|   -5.193637|   -7.856114|    2.258215|
|          28|  6.7701e+00|  5.0692e-09|  7.7120e-01|  5.0000e-01|  5.0000e-01|  5.0000e-01|   -4.909727|   -4.963859|   -5.624619|   -5.613441|   -5.193036|   -7.855932|    2.257956|
|          29|  6.7836e+00|  5.0692e-09|  7.7120e-01|  5.0000e-01|  5.0000e-01|  5.0000e-01|   -4.909162|   -4.963184|   -5.624169|   -5.613094|   -5.192430|   -7.855748|    2.257698|
|          30|  6.7935e+00|  5.0692e-09|  7.7120e-01|  5.0000e-01|  5.0000e-01|  5.0000e-01|   -4.908595|   -4.962507|   -5.623731|   -5.612752|   -5.191818|   -7.855561|    2.257440|
|          31|  6.7984e+00|  5.0692e-09|  7.7120e-01|  5.0000e-01|  5.0000e-01|  5.0000e-01|   -4.908027|   -4.961827|   -5.623302|   -5.612414|   -5.191201|   -7.855372|    2.257183|
|          32|  6.8031e+00|  5.0692e-09|  7.7120e-01|  5.0000e-01|  5.0000e-01|  5.0000e-01|   -4.907457|   -4.961145|   -5.622884|   -5.612081|   -5.190580|   -7.855179|    2.256927|
|          33|  6.8121e+00|  5.0692e-09|  7.7120e-01|  5.0000e-01|  5.0000e-01|  5.0000e-01|   -4.906887|   -4.960462|   -5.622475|   -5.611751|   -5.189955|   -7.854984|    2.256671|
|          34|  6.8262e+00|  5.0691e-09|  7.7120e-01|  5.0000e-01|  5.0000e-01|  5.0000e-01|   -4.906316|   -4.959778|   -5.622075|   -5.611425|   -5.189327|   -7.854787|    2.256417|
|          35|  6.8437e+00|  5.0691e-09|  7.7120e-01|  5.0000e-01|  5.0000e-01|  5.0000e-01|   -4.905746|   -4.959093|   -5.621682|   -5.611104|   -5.188697|   -7.854586|    2.256163|
|          36|  6.8556e+00|  5.0691e-09|  7.7120e-01|  5.0000e-01|  5.0000e-01|  5.0000e-01|   -4.905175|   -4.958409|   -5.621297|   -5.610789|   -5.188064|   -7.854383|    2.255909|
|          37|  6.8694e+00|  5.0691e-09|  7.7120e-01|  5.0000e-01|  5.0000e-01|  5.0000e-01|   -4.904604|   -4.957724|   -5.620921|   -5.610480|   -5.187430|   -7.854177|    2.255657|
|          38|  6.8796e+00|  5.0691e-09|  7.7120e-01|  5.0000e-01|  5.0000e-01|  5.0000e-01|   -4.904036|   -4.957041|   -5.620550|   -5.610176|   -5.186796|   -7.853968|    2.255405|
|          39|  6.8913e+00|  5.0691e-09|  7.7120e-01|  5.0000e-01|  5.0000e-01|  5.0000e-01|   -4.903469|   -4.956361|   -5.620186|   -5.609878|   -5.186163|   -7.853757|    2.255154|
|          40|  6.8966e+00|  5.0690e-09|  7.7120e-01|  5.0000e-01|  5.0000e-01|  5.0000e-01|   -4.902905|   -4.955683|   -5.619828|   -5.609586|   -5.185531|   -7.853542|    2.254904|
|          41|  6.9018e+00|  5.0690e-09|  7.7120e-01|  5.0000e-01|  5.0000e-01|  5.0000e-01|   -4.902341|   -4.955005|   -5.619475|   -5.609299|   -5.184898|   -7.853324|    2.254654|
|          42|  6.9069e+00|  5.0690e-09|  7.7120e-01|  5.0000e-01|  5.0000e-01|  5.0000e-01|   -4.901780|   -4.954331|   -5.619129|   -5.609018|   -5.184267|   -7.853102|    2.254405|
|          43|  6.9114e+00|  5.0690e-09|  7.7120e-01|  5.0000e-01|  5.0000e-01|  5.0000e-01|   -4.901223|   -4.953662|   -5.618786|   -5.608743|   -5.183640|   -7.852878|    2.254157|
|          44|  6.9165e+00|  5.0690e-09|  7.7120e-01|  5.0000e-01|  5.0000e-01|  5.0000e-01|   -4.900671|   -4.952998|   -5.618448|   -5.608473|   -5.183017|   -7.852650|    2.253910|
|          45|  6.9217e+00|  5.0689e-09|  7.7120e-01|  5.0000e-01|  5.0000e-01|  5.0000e-01|   -4.900125|   -4.952341|   -5.618114|   -5.608208|   -5.182400|   -7.852420|    2.253664|
|          46|  6.9267e+00|  5.0689e-09|  7.7120e-01|  5.0000e-01|  5.0000e-01|  5.0000e-01|   -4.899585|   -4.951691|   -5.617786|   -5.607949|   -5.181790|   -7.852185|    2.253418|
|          47|  6.9344e+00|  5.0689e-09|  7.7120e-01|  5.0000e-01|  5.0000e-01|  5.0000e-01|   -4.899052|   -4.951048|   -5.617463|   -5.607695|   -5.181186|   -7.851951|    2.253173|
|          48|  6.9410e+00|  5.0689e-09|  7.7120e-01|  5.0000e-01|  5.0000e-01|  5.0000e-01|   -4.898525|   -4.950413|   -5.617142|   -5.607446|   -5.180589|   -7.851714|    2.252929|
|          49|  6.9428e+00|  5.0689e-09|  7.7120e-01|  5.0000e-01|  5.0000e-01|  5.0000e-01|   -4.898004|   -4.949786|   -5.616822|   -5.607203|   -5.179998|   -7.851474|    2.252685|
|          50|  6.9445e+00|  5.0688e-09|  7.7120e-01|  5.0000e-01|  5.0000e-01|  5.0000e-01|   -4.897491|   -4.949166|   -5.616505|   -5.606964|   -5.179416|   -7.851231|    2.252443|
|          51|  6.9481e+00|  5.0688e-09|  7.7120e-01|  5.0000e-01|  5.0000e-01|  5.0000e-01|   -4.896985|   -4.948556|   -5.616191|   -5.606731|   -5.178841|   -7.850983|    2.252201|
|          52|  6.9534e+00|  5.0688e-09|  7.7120e-01|  5.0000e-01|  5.0000e-01|  5.0000e-01|   -4.896488|   -4.947955|   -5.615880|   -5.606503|   -5.178276|   -7.850731|    2.251959|
|          53|  6.9597e+00|  5.0688e-09|  7.7120e-01|  5.0000e-01|  5.0000e-01|  5.0000e-01|   -4.895998|   -4.947363|   -5.615573|   -5.606280|   -5.177719|   -7.850476|    2.251719|
|          54|  6.9657e+00|  5.0687e-09|  7.7120e-01|  5.0000e-01|  5.0000e-01|  5.0000e-01|   -4.895516|   -4.946779|   -5.615268|   -5.606062|   -5.177170|   -7.850216|    2.251479|
|          55|  6.9679e+00|  5.0687e-09|  7.7120e-01|  5.0000e-01|  5.0000e-01|  5.0000e-01|   -4.895042|   -4.946205|   -5.614967|   -5.605848|   -5.176631|   -7.849952|    2.251240|
|          56|  6.9674e+00|  5.0687e-09|  7.7120e-01|  5.0000e-01|  5.0000e-01|  5.0000e-01|   -4.894576|   -4.945640|   -5.614670|   -5.605639|   -5.176100|   -7.849685|    2.251002|
|          57|  6.9701e+00|  5.0687e-09|  7.7120e-01|  5.0000e-01|  5.0000e-01|  5.0000e-01|   -4.894118|   -4.945084|   -5.614376|   -5.605435|   -5.175578|   -7.849413|    2.250765|
|          58|  6.9726e+00|  5.0686e-09|  7.7120e-01|  5.0000e-01|  5.0000e-01|  5.0000e-01|   -4.893669|   -4.944537|   -5.614085|   -5.605236|   -5.175066|   -7.849137|    2.250528|
|          59|  6.9743e+00|  5.0686e-09|  7.7120e-01|  5.0000e-01|  5.0000e-01|  5.0000e-01|   -4.893228|   -4.943999|   -5.613796|   -5.605042|   -5.174562|   -7.848857|    2.250292|
|          60|  6.9776e+00|  5.0686e-09|  7.7120e-01|  5.0000e-01|  5.0000e-01|  5.0000e-01|   -4.892795|   -4.943470|   -5.613509|   -5.604853|   -5.174066|   -7.848573|    2.250057|
|          61|  6.9794e+00|  5.0685e-09|  7.7120e-01|  5.0000e-01|  5.0000e-01|  5.0000e-01|   -4.892370|   -4.942950|   -5.613226|   -5.604669|   -5.173581|   -7.848285|    2.249823|
|          62|  6.9828e+00|  5.0685e-09|  7.7120e-01|  5.0000e-01|  5.0000e-01|  5.0000e-01|   -4.891956|   -4.942442|   -5.612946|   -5.604491|   -5.173106|   -7.847993|    2.249590|
|          63|  6.9850e+00|  5.0685e-09|  7.7120e-01|  5.0000e-01|  5.0000e-01|  5.0000e-01|   -4.891548|   -4.941941|   -5.612665|   -5.604317|   -5.172639|   -7.847696|    2.249357|
|          64|  6.9898e+00|  5.0685e-09|  7.7120e-01|  5.0000e-01|  5.0000e-01|  5.0000e-01|   -4.891149|   -4.941451|   -5.612386|   -5.604147|   -5.172180|   -7.847395|    2.249125|
|          65|  6.9920e+00|  5.0684e-09|  7.7120e-01|  5.0000e-01|  5.0000e-01|  5.0000e-01|   -4.890758|   -4.940969|   -5.612108|   -5.603983|   -5.171731|   -7.847090|    2.248894|
|          66|  6.9936e+00|  5.0684e-09|  7.7120e-01|  5.0000e-01|  5.0000e-01|  5.0000e-01|   -4.890376|   -4.940497|   -5.611831|   -5.603823|   -5.171291|   -7.846781|    2.248664|
|          67|  6.9948e+00|  5.0684e-09|  7.7120e-01|  5.0000e-01|  5.0000e-01|  5.0000e-01|   -4.890000|   -4.940033|   -5.611557|   -5.603667|   -5.170858|   -7.846467|    2.248435|
|          68|  6.9945e+00|  5.0683e-09|  7.7120e-01|  5.0000e-01|  5.0000e-01|  5.0000e-01|   -4.889632|   -4.939577|   -5.611288|   -5.603516|   -5.170433|   -7.846149|    2.248206|
|          69|  6.9957e+00|  5.0683e-09|  7.7120e-01|  5.0000e-01|  5.0000e-01|  5.0000e-01|   -4.889271|   -4.939127|   -5.611019|   -5.603369|   -5.170015|   -7.845827|    2.247978|
|          70|  6.9964e+00|  5.0682e-09|  7.7120e-01|  5.0000e-01|  5.0000e-01|  5.0000e-01|   -4.888918|   -4.938687|   -5.610753|   -5.603226|   -5.169605|   -7.845501|    2.247751|
|          71|  6.9999e+00|  5.0682e-09|  7.7120e-01|  5.0000e-01|  5.0000e-01|  5.0000e-01|   -4.888572|   -4.938255|   -5.610488|   -5.603088|   -5.169203|   -7.845170|    2.247525|
|          72|  7.0009e+00|  5.0682e-09|  7.7120e-01|  5.0000e-01|  5.0000e-01|  5.0000e-01|   -4.888235|   -4.937832|   -5.610224|   -5.602955|   -5.168810|   -7.844835|    2.247300|
|          73|  7.0030e+00|  5.0681e-09|  7.7120e-01|  5.0000e-01|  5.0000e-01|  5.0000e-01|   -4.887905|   -4.937416|   -5.609961|   -5.602826|   -5.168424|   -7.844495|    2.247075|
|          74|  7.0031e+00|  5.0681e-09|  7.7120e-01|  5.0000e-01|  5.0000e-01|  5.0000e-01|   -4.887581|   -4.937009|   -5.609699|   -5.602702|   -5.168046|   -7.844152|    2.246852|
|          75|  7.0047e+00|  5.0681e-09|  7.7120e-01|  5.0000e-01|  5.0000e-01|  5.0000e-01|   -4.887266|   -4.936610|   -5.609440|   -5.602583|   -5.167675|   -7.843804|    2.246629|
|          76|  7.0055e+00|  5.0680e-09|  7.7120e-01|  5.0000e-01|  5.0000e-01|  5.0000e-01|   -4.886957|   -4.936219|   -5.609184|   -5.602467|   -5.167312|   -7.843451|    2.246407|
|          77|  7.0052e+00|  5.0680e-09|  7.7120e-01|  5.0000e-01|  5.0000e-01|  5.0000e-01|   -4.886656|   -4.935835|   -5.608930|   -5.602357|   -5.166956|   -7.843095|    2.246186|
|          78|  7.0050e+00|  5.0679e-09|  7.7120e-01|  5.0000e-01|  5.0000e-01|  5.0000e-01|   -4.886362|   -4.935459|   -5.608678|   -5.602251|   -5.166607|   -7.842734|    2.245965|
|          79|  7.0040e+00|  5.0679e-09|  7.7120e-01|  5.0000e-01|  5.0000e-01|  5.0000e-01|   -4.886074|   -4.935091|   -5.608427|   -5.602149|   -5.166265|   -7.842369|    2.245746|
|          80|  7.0058e+00|  5.0679e-09|  7.7120e-01|  5.0000e-01|  5.0000e-01|  5.0000e-01|   -4.885793|   -4.934730|   -5.608178|   -5.602051|   -5.165930|   -7.842000|    2.245527|
|          81|  7.0061e+00|  5.0678e-09|  7.7120e-01|  5.0000e-01|  5.0000e-01|  5.0000e-01|   -4.885520|   -4.934377|   -5.607933|   -5.601956|   -5.165603|   -7.841627|    2.245309|
|          82|  7.0085e+00|  5.0678e-09|  7.7120e-01|  5.0000e-01|  5.0000e-01|  5.0000e-01|   -4.885253|   -4.934032|   -5.607690|   -5.601866|   -5.165282|   -7.841250|    2.245092|
|          83|  7.0100e+00|  5.0677e-09|  7.7120e-01|  5.0000e-01|  5.0000e-01|  5.0000e-01|   -4.884992|   -4.933693|   -5.607448|   -5.601779|   -5.164966|   -7.840868|    2.244876|
|          84|  7.0118e+00|  5.0677e-09|  7.7120e-01|  5.0000e-01|  5.0000e-01|  5.0000e-01|   -4.884737|   -4.933361|   -5.607208|   -5.601697|   -5.164657|   -7.840483|    2.244660|
|          85|  7.0134e+00|  5.0676e-09|  7.7120e-01|  5.0000e-01|  5.0000e-01|  5.0000e-01|   -4.884488|   -4.933036|   -5.606969|   -5.601618|   -5.164354|   -7.840093|    2.244446|
|          86|  7.0140e+00|  5.0676e-09|  7.7120e-01|  5.0000e-01|  5.0000e-01|  5.0000e-01|   -4.884246|   -4.932718|   -5.606732|   -5.601543|   -5.164058|   -7.839699|    2.244232|
|          87|  7.0159e+00|  5.0675e-09|  7.7120e-01|  5.0000e-01|  5.0000e-01|  5.0000e-01|   -4.884009|   -4.932407|   -5.606497|   -5.601473|   -5.163767|   -7.839302|    2.244019|
|          88|  7.0183e+00|  5.0675e-09|  7.7120e-01|  5.0000e-01|  5.0000e-01|  5.0000e-01|   -4.883778|   -4.932102|   -5.606264|   -5.601407|   -5.163482|   -7.838900|    2.243807|
|          89|  7.0196e+00|  5.0674e-09|  7.7120e-01|  5.0000e-01|  5.0000e-01|  5.0000e-01|   -4.883551|   -4.931803|   -5.606031|   -5.601344|   -5.163201|   -7.838495|    2.243596|
|          90|  7.0208e+00|  5.0674e-09|  7.7120e-01|  5.0000e-01|  5.0000e-01|  5.0000e-01|   -4.883329|   -4.931509|   -5.605800|   -5.601285|   -5.162924|   -7.838085|    2.243385|
|          91|  7.0210e+00|  5.0673e-09|  7.7120e-01|  5.0000e-01|  5.0000e-01|  5.0000e-01|   -4.883112|   -4.931219|   -5.605568|   -5.601229|   -5.162651|   -7.837672|    2.243176|
|          92|  7.0204e+00|  5.0673e-09|  7.7120e-01|  5.0000e-01|  5.0000e-01|  5.0000e-01|   -4.882899|   -4.930936|   -5.605338|   -5.601176|   -5.162383|   -7.837255|    2.242967|
|          93|  7.0210e+00|  5.0672e-09|  7.7120e-01|  5.0000e-01|  5.0000e-01|  5.0000e-01|   -4.882691|   -4.930658|   -5.605109|   -5.601127|   -5.162121|   -7.836834|    2.242759|
|          94|  7.0221e+00|  5.0672e-09|  7.7120e-01|  5.0000e-01|  5.0000e-01|  5.0000e-01|   -4.882489|   -4.930386|   -5.604882|   -5.601081|   -5.161862|   -7.836410|    2.242552|
|          95|  7.0219e+00|  5.0671e-09|  7.7120e-01|  5.0000e-01|  5.0000e-01|  5.0000e-01|   -4.882291|   -4.930120|   -5.604658|   -5.601038|   -5.161609|   -7.835981|    2.242346|
|          96|  7.0228e+00|  5.0671e-09|  7.7120e-01|  5.0000e-01|  5.0000e-01|  5.0000e-01|   -4.882098|   -4.929859|   -5.604434|   -5.600997|   -5.161360|   -7.835549|    2.242140|
|          97|  7.0229e+00|  5.0670e-09|  7.7120e-01|  5.0000e-01|  5.0000e-01|  5.0000e-01|   -4.881908|   -4.929601|   -5.604209|   -5.600958|   -5.161114|   -7.835113|    2.241936|
|          98|  7.0233e+00|  5.0670e-09|  7.7120e-01|  5.0000e-01|  5.0000e-01|  5.0000e-01|   -4.881721|   -4.929349|   -5.603983|   -5.600921|   -5.160871|   -7.834674|    2.241732|
|          99|  7.0238e+00|  5.0669e-09|  7.7120e-01|  5.0000e-01|  5.0000e-01|  5.0000e-01|   -4.881538|   -4.929101|   -5.603757|   -5.600887|   -5.160632|   -7.834231|    2.241529|
|         100|  7.0282e+00|  5.0669e-09|  7.7120e-01|  5.0000e-01|  5.0000e-01|  5.0000e-01|   -4.881359|   -4.928857|   -5.603530|   -5.600855|   -5.160395|   -7.833785|    2.241326|
|         101|  7.0316e+00|  5.0668e-09|  7.7120e-01|  5.0000e-01|  5.0000e-01|  5.0000e-01|   -4.881182|   -4.928618|   -5.603304|   -5.600824|   -5.160162|   -7.833335|    2.241125|
|         102|  7.0351e+00|  5.0667e-09|  7.7120e-01|  5.0000e-01|  5.0000e-01|  5.0000e-01|   -4.881009|   -4.928382|   -5.603077|   -5.600794|   -5.159932|   -7.832882|    2.240924|
|         103|  7.0361e+00|  5.0667e-09|  7.7120e-01|  5.0000e-01|  5.0000e-01|  5.0000e-01|   -4.880841|   -4.928152|   -5.602851|   -5.600766|   -5.159706|   -7.832425|    2.240725|
|         104|  7.0366e+00|  5.0666e-09|  7.7120e-01|  5.0000e-01|  5.0000e-01|  5.0000e-01|   -4.880675|   -4.927926|   -5.602626|   -5.600740|   -5.159483|   -7.831965|    2.240526|
|         105|  7.0378e+00|  5.0666e-09|  7.7120e-01|  5.0000e-01|  5.0000e-01|  5.0000e-01|   -4.880513|   -4.927703|   -5.602404|   -5.600716|   -5.159263|   -7.831501|    2.240328|
|         106|  7.0385e+00|  5.0665e-09|  7.7120e-01|  5.0000e-01|  5.0000e-01|  5.0000e-01|   -4.880353|   -4.927484|   -5.602184|   -5.600693|   -5.159047|   -7.831035|    2.240130|
|         107|  7.0380e+00|  5.0664e-09|  7.7120e-01|  5.0000e-01|  5.0000e-01|  5.0000e-01|   -4.880198|   -4.927270|   -5.601964|   -5.600673|   -5.158833|   -7.830565|    2.239934|
|         108|  7.0392e+00|  5.0664e-09|  7.7120e-01|  5.0000e-01|  5.0000e-01|  5.0000e-01|   -4.880045|   -4.927059|   -5.601744|   -5.600654|   -5.158623|   -7.830092|    2.239738|
|         109|  7.0409e+00|  5.0663e-09|  7.7120e-01|  5.0000e-01|  5.0000e-01|  5.0000e-01|   -4.879896|   -4.926852|   -5.601527|   -5.600636|   -5.158416|   -7.829615|    2.239543|
|         110|  7.0415e+00|  5.0663e-09|  7.7120e-01|  5.0000e-01|  5.0000e-01|  5.0000e-01|   -4.879750|   -4.926649|   -5.601310|   -5.600620|   -5.158212|   -7.829136|    2.239349|
|         111|  7.0423e+00|  5.0662e-09|  7.7120e-01|  5.0000e-01|  5.0000e-01|  5.0000e-01|   -4.879608|   -4.926449|   -5.601094|   -5.600605|   -5.158012|   -7.828654|    2.239156|
|         112|  7.0430e+00|  5.0661e-09|  7.7120e-01|  5.0000e-01|  5.0000e-01|  5.0000e-01|   -4.879468|   -4.926253|   -5.600878|   -5.600591|   -5.157814|   -7.828169|    2.238963|
|         113|  7.0440e+00|  5.0661e-09|  7.7120e-01|  5.0000e-01|  5.0000e-01|  5.0000e-01|   -4.879332|   -4.926062|   -5.600661|   -5.600578|   -5.157619|   -7.827681|    2.238771|
|         114|  7.0456e+00|  5.0660e-09|  7.7120e-01|  5.0000e-01|  5.0000e-01|  5.0000e-01|   -4.879199|   -4.925874|   -5.600446|   -5.600567|   -5.157428|   -7.827190|    2.238580|
|         115|  7.0459e+00|  5.0659e-09|  7.7120e-01|  5.0000e-01|  5.0000e-01|  5.0000e-01|   -4.879070|   -4.925689|   -5.600233|   -5.600555|   -5.157240|   -7.826696|    2.238390|
|         116|  7.0463e+00|  5.0659e-09|  7.7120e-01|  5.0000e-01|  5.0000e-01|  5.0000e-01|   -4.878944|   -4.925509|   -5.600020|   -5.600544|   -5.157054|   -7.826200|    2.238201|
|         117|  7.0475e+00|  5.0658e-09|  7.7120e-01|  5.0000e-01|  5.0000e-01|  5.0000e-01|   -4.878820|   -4.925331|   -5.599809|   -5.600533|   -5.156872|   -7.825701|    2.238012|
|         118|  7.0484e+00|  5.0657e-09|  7.7121e-01|  5.0000e-01|  5.0000e-01|  5.0000e-01|   -4.878699|   -4.925158|   -5.599598|   -5.600522|   -5.156692|   -7.825199|    2.237824|
|         119|  7.0498e+00|  5.0656e-09|  7.7121e-01|  5.0000e-01|  5.0000e-01|  5.0000e-01|   -4.878582|   -4.924987|   -5.599388|   -5.600512|   -5.156514|   -7.824695|    2.237637|
|         120|  7.0508e+00|  5.0656e-09|  7.7121e-01|  5.0000e-01|  5.0000e-01|  5.0000e-01|   -4.878466|   -4.924820|   -5.599180|   -5.600502|   -5.156339|   -7.824188|    2.237451|
|         121|  7.0503e+00|  5.0655e-09|  7.7121e-01|  5.0000e-01|  5.0000e-01|  5.0000e-01|   -4.878353|   -4.924655|   -5.598971|   -5.600492|   -5.156166|   -7.823679|    2.237266|
|         122|  7.0511e+00|  5.0654e-09|  7.7121e-01|  5.0000e-01|  5.0000e-01|  5.0000e-01|   -4.878242|   -4.924494|   -5.598764|   -5.600483|   -5.155996|   -7.823168|    2.237081|
|         123|  7.0523e+00|  5.0654e-09|  7.7121e-01|  5.0000e-01|  5.0000e-01|  5.0000e-01|   -4.878134|   -4.924336|   -5.598557|   -5.600474|   -5.155828|   -7.822655|    2.236897|
|         124|  7.0524e+00|  5.0653e-09|  7.7121e-01|  5.0000e-01|  5.0000e-01|  5.0000e-01|   -4.878029|   -4.924181|   -5.598353|   -5.600465|   -5.155663|   -7.822139|    2.236714|
|         125|  7.0527e+00|  5.0652e-09|  7.7121e-01|  5.0000e-01|  5.0000e-01|  5.0000e-01|   -4.877927|   -4.924030|   -5.598151|   -5.600458|   -5.155501|   -7.821621|    2.236532|
|         126|  7.0526e+00|  5.0651e-09|  7.7121e-01|  5.0000e-01|  5.0000e-01|  5.0000e-01|   -4.877828|   -4.923882|   -5.597951|   -5.600451|   -5.155342|   -7.821101|    2.236351|
|         127|  7.0532e+00|  5.0651e-09|  7.7121e-01|  5.0000e-01|  5.0000e-01|  5.0000e-01|   -4.877731|   -4.923737|   -5.597751|   -5.600444|   -5.155184|   -7.820579|    2.236170|
|         128|  7.0540e+00|  5.0650e-09|  7.7121e-01|  5.0000e-01|  5.0000e-01|  5.0000e-01|   -4.877636|   -4.923595|   -5.597551|   -5.600437|   -5.155029|   -7.820055|    2.235990|
|         129|  7.0546e+00|  5.0649e-09|  7.7121e-01|  5.0000e-01|  5.0000e-01|  5.0000e-01|   -4.877543|   -4.923456|   -5.597352|   -5.600431|   -5.154876|   -7.819529|    2.235811|
|         130|  7.0555e+00|  5.0648e-09|  7.7121e-01|  5.0000e-01|  5.0000e-01|  5.0000e-01|   -4.877453|   -4.923320|   -5.597155|   -5.600424|   -5.154726|   -7.819002|    2.235633|
|         131|  7.0562e+00|  5.0647e-09|  7.7121e-01|  5.0000e-01|  5.0000e-01|  5.0000e-01|   -4.877363|   -4.923184|   -5.596958|   -5.600416|   -5.154574|   -7.818473|    2.235455|
|         132|  7.0561e+00|  5.0647e-09|  7.7121e-01|  5.0000e-01|  5.0000e-01|  5.0000e-01|   -4.877275|   -4.923051|   -5.596762|   -5.600408|   -5.154425|   -7.817942|    2.235278|
|         133|  7.0566e+00|  5.0646e-09|  7.7121e-01|  5.0000e-01|  5.0000e-01|  5.0000e-01|   -4.877190|   -4.922921|   -5.596568|   -5.600400|   -5.154279|   -7.817409|    2.235102|
|         134|  7.0609e+00|  5.0645e-09|  7.7121e-01|  5.0000e-01|  5.0000e-01|  5.0000e-01|   -4.877107|   -4.922795|   -5.596375|   -5.600392|   -5.154135|   -7.816876|    2.234927|
|         135|  7.0662e+00|  5.0644e-09|  7.7121e-01|  5.0000e-01|  5.0000e-01|  5.0000e-01|   -4.877028|   -4.922672|   -5.596183|   -5.600384|   -5.153994|   -7.816340|    2.234753|
|         136|  7.0685e+00|  5.0643e-09|  7.7121e-01|  5.0000e-01|  5.0000e-01|  5.0000e-01|   -4.876951|   -4.922552|   -5.595991|   -5.600377|   -5.153856|   -7.815804|    2.234579|
|         137|  7.0701e+00|  5.0642e-09|  7.7121e-01|  5.0000e-01|  5.0000e-01|  5.0000e-01|   -4.876877|   -4.922436|   -5.595801|   -5.600370|   -5.153721|   -7.815266|    2.234407|
|         138|  7.0707e+00|  5.0642e-09|  7.7121e-01|  5.0000e-01|  5.0000e-01|  5.0000e-01|   -4.876804|   -4.922323|   -5.595611|   -5.600361|   -5.153587|   -7.814727|    2.234235|
|         139|  7.0711e+00|  5.0641e-09|  7.7121e-01|  5.0000e-01|  5.0000e-01|  5.0000e-01|   -4.876733|   -4.922211|   -5.595421|   -5.600352|   -5.153455|   -7.814186|    2.234064|
|         140|  7.0708e+00|  5.0640e-09|  7.7121e-01|  5.0000e-01|  5.0000e-01|  5.0000e-01|   -4.876664|   -4.922103|   -5.595232|   -5.600343|   -5.153325|   -7.813645|    2.233893|
|         141|  7.0711e+00|  5.0639e-09|  7.7121e-01|  5.0000e-01|  5.0000e-01|  5.0000e-01|   -4.876596|   -4.921996|   -5.595044|   -5.600333|   -5.153195|   -7.813103|    2.233724|
|         142|  7.0708e+00|  5.0638e-09|  7.7121e-01|  5.0000e-01|  5.0000e-01|  5.0000e-01|   -4.876530|   -4.921892|   -5.594856|   -5.600324|   -5.153067|   -7.812559|    2.233555|
|         143|  7.0723e+00|  5.0637e-09|  7.7121e-01|  5.0000e-01|  5.0000e-01|  5.0000e-01|   -4.876466|   -4.921790|   -5.594668|   -5.600314|   -5.152941|   -7.812015|    2.233387|
|         144|  7.0739e+00|  5.0636e-09|  7.7121e-01|  5.0000e-01|  5.0000e-01|  5.0000e-01|   -4.876404|   -4.921692|   -5.594483|   -5.600306|   -5.152818|   -7.811471|    2.233220|
|         145|  7.0746e+00|  5.0635e-09|  7.7121e-01|  5.0000e-01|  5.0000e-01|  5.0000e-01|   -4.876346|   -4.921597|   -5.594298|   -5.600298|   -5.152698|   -7.810925|    2.233054|
|         146|  7.0745e+00|  5.0635e-09|  7.7121e-01|  5.0000e-01|  5.0000e-01|  5.0000e-01|   -4.876290|   -4.921506|   -5.594116|   -5.600290|   -5.152581|   -7.810379|    2.232889|
|         147|  7.0754e+00|  5.0634e-09|  7.7121e-01|  5.0000e-01|  5.0000e-01|  5.0000e-01|   -4.876237|   -4.921418|   -5.593934|   -5.600283|   -5.152467|   -7.809832|    2.232724|
|         148|  7.0755e+00|  5.0633e-09|  7.7121e-01|  5.0000e-01|  5.0000e-01|  5.0000e-01|   -4.876186|   -4.921332|   -5.593753|   -5.600276|   -5.152354|   -7.809285|    2.232560|
|         149|  7.0754e+00|  5.0632e-09|  7.7121e-01|  5.0000e-01|  5.0000e-01|  5.0000e-01|   -4.876134|   -4.921246|   -5.593571|   -5.600268|   -5.152240|   -7.808738|    2.232397|
|         150|  7.0755e+00|  5.0631e-09|  7.7121e-01|  5.0000e-01|  5.0000e-01|  5.0000e-01|   -4.876084|   -4.921163|   -5.593389|   -5.600259|   -5.152129|   -7.808190|    2.232235|
+-----------------------------------------------------------------------+
|        File Writing Summary       |              Filename             |
+-----------------------------------------------------------------------+
|SU2 binary restart                 |restart_flow.dat                   |
|Paraview                           |flow.vtu                           |
|Paraview surface                   |surface_flow.vtu                   |
+-----------------------------------------------------------------------+
+-------------------------------------------------------------------------------------------------------------------------------------------------------------------------------------+
|  Inner_Iter|   Time(sec)|      Min DT|      Max DT|     Min CFL|     Max CFL|     Avg CFL|    rms[Rho]|   rms[RhoU]|   rms[RhoV]|   rms[RhoW]|   rms[RhoE]|     rms[nu]|          CD|
+-------------------------------------------------------------------------------------------------------------------------------------------------------------------------------------+
|         151|  7.2268e+00|  5.0630e-09|  7.7121e-01|  5.0000e-01|  5.0000e-01|  5.0000e-01|   -4.876037|   -4.921083|   -5.593209|   -5.600251|   -5.152021|   -7.807643|    2.232074|
|         152|  7.2279e+00|  5.0629e-09|  7.7121e-01|  5.0000e-01|  5.0000e-01|  5.0000e-01|   -4.875993|   -4.921007|   -5.593030|   -5.600244|   -5.151915|   -7.807095|    2.231914|
|         153|  7.2291e+00|  5.0628e-09|  7.7121e-01|  5.0000e-01|  5.0000e-01|  5.0000e-01|   -4.875952|   -4.920934|   -5.592853|   -5.600238|   -5.151813|   -7.806547|    2.231754|
|         154|  7.2307e+00|  5.0627e-09|  7.7121e-01|  5.0000e-01|  5.0000e-01|  5.0000e-01|   -4.875913|   -4.920865|   -5.592678|   -5.600232|   -5.151712|   -7.805999|    2.231595|
|         155|  7.2313e+00|  5.0626e-09|  7.7121e-01|  5.0000e-01|  5.0000e-01|  5.0000e-01|   -4.875877|   -4.920798|   -5.592505|   -5.600227|   -5.151615|   -7.805451|    2.231438|
|         156|  7.2330e+00|  5.0625e-09|  7.7121e-01|  5.0000e-01|  5.0000e-01|  5.0000e-01|   -4.875843|   -4.920734|   -5.592334|   -5.600223|   -5.151521|   -7.804904|    2.231281|
|         157|  7.2329e+00|  5.0624e-09|  7.7121e-01|  5.0000e-01|  5.0000e-01|  5.0000e-01|   -4.875812|   -4.920673|   -5.592165|   -5.600219|   -5.151429|   -7.804356|    2.231124|
|         158|  7.2321e+00|  5.0623e-09|  7.7121e-01|  5.0000e-01|  5.0000e-01|  5.0000e-01|   -4.875783|   -4.920616|   -5.591996|   -5.600215|   -5.151339|   -7.803810|    2.230969|
|         159|  7.2345e+00|  5.0622e-09|  7.7121e-01|  5.0000e-01|  5.0000e-01|  5.0000e-01|   -4.875758|   -4.920563|   -5.591829|   -5.600214|   -5.151254|   -7.803263|    2.230815|
|         160|  7.2345e+00|  5.0621e-09|  7.7121e-01|  5.0000e-01|  5.0000e-01|  5.0000e-01|   -4.875735|   -4.920512|   -5.591664|   -5.600213|   -5.151171|   -7.802718|    2.230661|
|         161|  7.2335e+00|  5.0620e-09|  7.7121e-01|  5.0000e-01|  5.0000e-01|  5.0000e-01|   -4.875716|   -4.920466|   -5.591501|   -5.600213|   -5.151091|   -7.802172|    2.230509|
|         162|  7.2331e+00|  5.0619e-09|  7.7121e-01|  5.0000e-01|  5.0000e-01|  5.0000e-01|   -4.875699|   -4.920422|   -5.591339|   -5.600212|   -5.151014|   -7.801628|    2.230357|
|         163|  7.2336e+00|  5.0618e-09|  7.7121e-01|  5.0000e-01|  5.0000e-01|  5.0000e-01|   -4.875684|   -4.920381|   -5.591177|   -5.600212|   -5.150939|   -7.801084|    2.230206|
|         164|  7.2350e+00|  5.0617e-09|  7.7121e-01|  5.0000e-01|  5.0000e-01|  5.0000e-01|   -4.875671|   -4.920342|   -5.591015|   -5.600212|   -5.150866|   -7.800542|    2.230056|
|         165|  7.2355e+00|  5.0616e-09|  7.7121e-01|  5.0000e-01|  5.0000e-01|  5.0000e-01|   -4.875660|   -4.920307|   -5.590854|   -5.600213|   -5.150796|   -7.800000|    2.229907|
|         166|  7.2353e+00|  5.0615e-09|  7.7121e-01|  5.0000e-01|  5.0000e-01|  5.0000e-01|   -4.875652|   -4.920275|   -5.590691|   -5.600214|   -5.150727|   -7.799459|    2.229759|
|         167|  7.2343e+00|  5.0613e-09|  7.7121e-01|  5.0000e-01|  5.0000e-01|  5.0000e-01|   -4.875644|   -4.920245|   -5.590527|   -5.600213|   -5.150660|   -7.798920|    2.229611|
|         168|  7.2328e+00|  5.0612e-09|  7.7121e-01|  5.0000e-01|  5.0000e-01|  5.0000e-01|   -4.875638|   -4.920217|   -5.590364|   -5.600214|   -5.150595|   -7.798382|    2.229465|
|         169|  7.2316e+00|  5.0611e-09|  7.7121e-01|  5.0000e-01|  5.0000e-01|  5.0000e-01|   -4.875634|   -4.920192|   -5.590203|   -5.600215|   -5.150531|   -7.797845|    2.229319|
|         170|  7.2306e+00|  5.0610e-09|  7.7121e-01|  5.0000e-01|  5.0000e-01|  5.0000e-01|   -4.875632|   -4.920169|   -5.590042|   -5.600216|   -5.150470|   -7.797309|    2.229175|
|         171|  7.2292e+00|  5.0609e-09|  7.7121e-01|  5.0000e-01|  5.0000e-01|  5.0000e-01|   -4.875632|   -4.920149|   -5.589881|   -5.600218|   -5.150411|   -7.796775|    2.229031|
|         172|  7.2285e+00|  5.0608e-09|  7.7121e-01|  5.0000e-01|  5.0000e-01|  5.0000e-01|   -4.875634|   -4.920131|   -5.589721|   -5.600220|   -5.150354|   -7.796243|    2.228888|
|         173|  7.2270e+00|  5.0607e-09|  7.7121e-01|  5.0000e-01|  5.0000e-01|  5.0000e-01|   -4.875637|   -4.920115|   -5.589564|   -5.600223|   -5.150299|   -7.795712|    2.228746|
|         174|  7.2260e+00|  5.0606e-09|  7.7121e-01|  5.0000e-01|  5.0000e-01|  5.0000e-01|   -4.875642|   -4.920101|   -5.589408|   -5.600227|   -5.150245|   -7.795183|    2.228605|
|         175|  7.2248e+00|  5.0605e-09|  7.7121e-01|  5.0000e-01|  5.0000e-01|  5.0000e-01|   -4.875648|   -4.920088|   -5.589253|   -5.600231|   -5.150193|   -7.794656|    2.228465|
|         176|  7.2239e+00|  5.0603e-09|  7.7121e-01|  5.0000e-01|  5.0000e-01|  5.0000e-01|   -4.875656|   -4.920077|   -5.589100|   -5.600236|   -5.150143|   -7.794131|    2.228326|
|         177|  7.2229e+00|  5.0602e-09|  7.7121e-01|  5.0000e-01|  5.0000e-01|  5.0000e-01|   -4.875666|   -4.920068|   -5.588948|   -5.600240|   -5.150094|   -7.793608|    2.228187|
|         178|  7.2223e+00|  5.0601e-09|  7.7121e-01|  5.0000e-01|  5.0000e-01|  5.0000e-01|   -4.875677|   -4.920061|   -5.588796|   -5.600245|   -5.150047|   -7.793087|    2.228050|
|         179|  7.2211e+00|  5.0600e-09|  7.7121e-01|  5.0000e-01|  5.0000e-01|  5.0000e-01|   -4.875690|   -4.920056|   -5.588643|   -5.600251|   -5.150002|   -7.792569|    2.227913|
|         180|  7.2217e+00|  5.0599e-09|  7.7121e-01|  5.0000e-01|  5.0000e-01|  5.0000e-01|   -4.875703|   -4.920053|   -5.588489|   -5.600255|   -5.149958|   -7.792052|    2.227778|
|         181|  7.2220e+00|  5.0597e-09|  7.7121e-01|  5.0000e-01|  5.0000e-01|  5.0000e-01|   -4.875718|   -4.920051|   -5.588336|   -5.600259|   -5.149916|   -7.791538|    2.227643|
|         182|  7.2216e+00|  5.0596e-09|  7.7121e-01|  5.0000e-01|  5.0000e-01|  5.0000e-01|   -4.875734|   -4.920052|   -5.588183|   -5.600263|   -5.149875|   -7.791027|    2.227510|
|         183|  7.2217e+00|  5.0595e-09|  7.7121e-01|  5.0000e-01|  5.0000e-01|  5.0000e-01|   -4.875751|   -4.920054|   -5.588029|   -5.600267|   -5.149834|   -7.790518|    2.227377|
|         184|  7.2210e+00|  5.0594e-09|  7.7121e-01|  5.0000e-01|  5.0000e-01|  5.0000e-01|   -4.875770|   -4.920057|   -5.587875|   -5.600270|   -5.149796|   -7.790011|    2.227245|
|         185|  7.2215e+00|  5.0593e-09|  7.7121e-01|  5.0000e-01|  5.0000e-01|  5.0000e-01|   -4.875791|   -4.920064|   -5.587723|   -5.600274|   -5.149761|   -7.789507|    2.227114|
|         186|  7.2209e+00|  5.0591e-09|  7.7121e-01|  5.0000e-01|  5.0000e-01|  5.0000e-01|   -4.875813|   -4.920072|   -5.587573|   -5.600278|   -5.149727|   -7.789007|    2.226984|
|         187|  7.2201e+00|  5.0590e-09|  7.7121e-01|  5.0000e-01|  5.0000e-01|  5.0000e-01|   -4.875836|   -4.920082|   -5.587422|   -5.600281|   -5.149694|   -7.788509|    2.226855|
|         188|  7.2195e+00|  5.0589e-09|  7.7121e-01|  5.0000e-01|  5.0000e-01|  5.0000e-01|   -4.875860|   -4.920094|   -5.587272|   -5.600283|   -5.149663|   -7.788014|    2.226726|
|         189|  7.2188e+00|  5.0588e-09|  7.7121e-01|  5.0000e-01|  5.0000e-01|  5.0000e-01|   -4.875884|   -4.920106|   -5.587122|   -5.600284|   -5.149631|   -7.787522|    2.226599|
|         190|  7.2184e+00|  5.0586e-09|  7.7121e-01|  5.0000e-01|  5.0000e-01|  5.0000e-01|   -4.875908|   -4.920119|   -5.586972|   -5.600283|   -5.149601|   -7.787033|    2.226473|
|         191|  7.2181e+00|  5.0585e-09|  7.7121e-01|  5.0000e-01|  5.0000e-01|  5.0000e-01|   -4.875934|   -4.920134|   -5.586824|   -5.600283|   -5.149572|   -7.786548|    2.226347|
|         192|  7.2175e+00|  5.0584e-09|  7.7121e-01|  5.0000e-01|  5.0000e-01|  5.0000e-01|   -4.875961|   -4.920150|   -5.586677|   -5.600282|   -5.149544|   -7.786066|    2.226223|
|         193|  7.2171e+00|  5.0582e-09|  7.7121e-01|  5.0000e-01|  5.0000e-01|  5.0000e-01|   -4.875987|   -4.920167|   -5.586530|   -5.600280|   -5.149517|   -7.785587|    2.226099|
|         194|  7.2170e+00|  5.0581e-09|  7.7121e-01|  5.0000e-01|  5.0000e-01|  5.0000e-01|   -4.876014|   -4.920185|   -5.586385|   -5.600276|   -5.149490|   -7.785112|    2.225976|
|         195|  7.2167e+00|  5.0580e-09|  7.7121e-01|  5.0000e-01|  5.0000e-01|  5.0000e-01|   -4.876041|   -4.920203|   -5.586239|   -5.600271|   -5.149464|   -7.784640|    2.225855|
|         196|  7.2160e+00|  5.0578e-09|  7.7121e-01|  5.0000e-01|  5.0000e-01|  5.0000e-01|   -4.876068|   -4.920222|   -5.586093|   -5.600266|   -5.149438|   -7.784173|    2.225734|
|         197|  7.2150e+00|  5.0577e-09|  7.7121e-01|  5.0000e-01|  5.0000e-01|  5.0000e-01|   -4.876096|   -4.920243|   -5.585947|   -5.600259|   -5.149414|   -7.783709|    2.225614|
|         198|  7.2152e+00|  5.0576e-09|  7.7121e-01|  5.0000e-01|  5.0000e-01|  5.0000e-01|   -4.876125|   -4.920266|   -5.585804|   -5.600253|   -5.149392|   -7.783248|    2.225495|
|         199|  7.2151e+00|  5.0574e-09|  7.7121e-01|  5.0000e-01|  5.0000e-01|  5.0000e-01|   -4.876155|   -4.920291|   -5.585663|   -5.600245|   -5.149371|   -7.782792|    2.225377|
|         200|  7.2139e+00|  5.0573e-09|  7.7121e-01|  5.0000e-01|  5.0000e-01|  5.0000e-01|   -4.876186|   -4.920316|   -5.585523|   -5.600237|   -5.149351|   -7.782340|    2.225259|
|         201|  7.2130e+00|  5.0572e-09|  7.7121e-01|  5.0000e-01|  5.0000e-01|  5.0000e-01|   -4.876218|   -4.920342|   -5.585386|   -5.600228|   -5.149333|   -7.781892|    2.225143|
|         202|  7.2120e+00|  5.0570e-09|  7.7121e-01|  5.0000e-01|  5.0000e-01|  5.0000e-01|   -4.876250|   -4.920370|   -5.585249|   -5.600217|   -5.149315|   -7.781448|    2.225028|
|         203|  7.2117e+00|  5.0569e-09|  7.7121e-01|  5.0000e-01|  5.0000e-01|  5.0000e-01|   -4.876283|   -4.920400|   -5.585113|   -5.600206|   -5.149299|   -7.781008|    2.224913|
|         204|  7.2110e+00|  5.0568e-09|  7.7121e-01|  5.0000e-01|  5.0000e-01|  5.0000e-01|   -4.876316|   -4.920431|   -5.584976|   -5.600193|   -5.149284|   -7.780573|    2.224800|
|         205|  7.2103e+00|  5.0566e-09|  7.7121e-01|  5.0000e-01|  5.0000e-01|  5.0000e-01|   -4.876350|   -4.920463|   -5.584842|   -5.600179|   -5.149269|   -7.780142|    2.224687|
|         206|  7.2094e+00|  5.0565e-09|  7.7121e-01|  5.0000e-01|  5.0000e-01|  5.0000e-01|   -4.876384|   -4.920496|   -5.584707|   -5.600164|   -5.149255|   -7.779716|    2.224575|
|         207|  7.2089e+00|  5.0563e-09|  7.7121e-01|  5.0000e-01|  5.0000e-01|  5.0000e-01|   -4.876418|   -4.920529|   -5.584572|   -5.600149|   -5.149242|   -7.779294|    2.224465|
|         208|  7.2083e+00|  5.0562e-09|  7.7121e-01|  5.0000e-01|  5.0000e-01|  5.0000e-01|   -4.876452|   -4.920564|   -5.584436|   -5.600133|   -5.149229|   -7.778877|    2.224355|
|         209|  7.2077e+00|  5.0561e-09|  7.7121e-01|  5.0000e-01|  5.0000e-01|  5.0000e-01|   -4.876486|   -4.920599|   -5.584300|   -5.600117|   -5.149217|   -7.778464|    2.224246|
|         210|  7.2074e+00|  5.0559e-09|  7.7121e-01|  5.0000e-01|  5.0000e-01|  5.0000e-01|   -4.876519|   -4.920635|   -5.584163|   -5.600098|   -5.149204|   -7.778057|    2.224137|
|         211|  7.2083e+00|  5.0558e-09|  7.7121e-01|  5.0000e-01|  5.0000e-01|  5.0000e-01|   -4.876552|   -4.920671|   -5.584027|   -5.600080|   -5.149193|   -7.777654|    2.224030|
|         212|  7.2082e+00|  5.0556e-09|  7.7121e-01|  5.0000e-01|  5.0000e-01|  5.0000e-01|   -4.876586|   -4.920708|   -5.583892|   -5.600061|   -5.149182|   -7.777257|    2.223924|
|         213|  7.2081e+00|  5.0555e-09|  7.7121e-01|  5.0000e-01|  5.0000e-01|  5.0000e-01|   -4.876620|   -4.920746|   -5.583757|   -5.600041|   -5.149171|   -7.776864|    2.223818|
|         214|  7.2073e+00|  5.0553e-09|  7.7121e-01|  5.0000e-01|  5.0000e-01|  5.0000e-01|   -4.876655|   -4.920785|   -5.583622|   -5.600019|   -5.149162|   -7.776477|    2.223714|
|         215|  7.2079e+00|  5.0552e-09|  7.7121e-01|  5.0000e-01|  5.0000e-01|  5.0000e-01|   -4.876689|   -4.920824|   -5.583488|   -5.599996|   -5.149153|   -7.776094|    2.223610|
|         216|  7.2075e+00|  5.0550e-09|  7.7121e-01|  5.0000e-01|  5.0000e-01|  5.0000e-01|   -4.876724|   -4.920864|   -5.583356|   -5.599972|   -5.149145|   -7.775717|    2.223507|
|         217|  7.2069e+00|  5.0549e-09|  7.7121e-01|  5.0000e-01|  5.0000e-01|  5.0000e-01|   -4.876759|   -4.920905|   -5.583225|   -5.599948|   -5.149138|   -7.775346|    2.223406|
|         218|  7.2065e+00|  5.0547e-09|  7.7121e-01|  5.0000e-01|  5.0000e-01|  5.0000e-01|   -4.876794|   -4.920946|   -5.583094|   -5.599922|   -5.149131|   -7.774979|    2.223305|
|         219|  7.2057e+00|  5.0546e-09|  7.7121e-01|  5.0000e-01|  5.0000e-01|  5.0000e-01|   -4.876830|   -4.920988|   -5.582962|   -5.599895|   -5.149125|   -7.774618|    2.223204|
|         220|  7.2047e+00|  5.0544e-09|  7.7121e-01|  5.0000e-01|  5.0000e-01|  5.0000e-01|   -4.876865|   -4.921030|   -5.582829|   -5.599865|   -5.149118|   -7.774263|    2.223105|
|         221|  7.2039e+00|  5.0543e-09|  7.7121e-01|  5.0000e-01|  5.0000e-01|  5.0000e-01|   -4.876901|   -4.921072|   -5.582696|   -5.599835|   -5.149113|   -7.773914|    2.223007|
|         222|  7.2032e+00|  5.0541e-09|  7.7121e-01|  5.0000e-01|  5.0000e-01|  5.0000e-01|   -4.876937|   -4.921115|   -5.582565|   -5.599802|   -5.149109|   -7.773570|    2.222909|
|         223|  7.2022e+00|  5.0540e-09|  7.7121e-01|  5.0000e-01|  5.0000e-01|  5.0000e-01|   -4.876973|   -4.921159|   -5.582434|   -5.599767|   -5.149104|   -7.773232|    2.222813|
|         224|  7.2014e+00|  5.0538e-09|  7.7121e-01|  5.0000e-01|  5.0000e-01|  5.0000e-01|   -4.877008|   -4.921202|   -5.582302|   -5.599729|   -5.149099|   -7.772899|    2.222717|
|         225|  7.2008e+00|  5.0537e-09|  7.7121e-01|  5.0000e-01|  5.0000e-01|  5.0000e-01|   -4.877042|   -4.921245|   -5.582171|   -5.599689|   -5.149094|   -7.772573|    2.222622|
|         226|  7.2004e+00|  5.0535e-09|  7.7121e-01|  5.0000e-01|  5.0000e-01|  5.0000e-01|   -4.877077|   -4.921289|   -5.582040|   -5.599647|   -5.149089|   -7.772252|    2.222528|
|         227|  7.2000e+00|  5.0533e-09|  7.7121e-01|  5.0000e-01|  5.0000e-01|  5.0000e-01|   -4.877111|   -4.921333|   -5.581910|   -5.599603|   -5.149085|   -7.771938|    2.222435|
|         228|  7.1991e+00|  5.0532e-09|  7.7121e-01|  5.0000e-01|  5.0000e-01|  5.0000e-01|   -4.877145|   -4.921377|   -5.581779|   -5.599557|   -5.149081|   -7.771629|    2.222343|
|         229|  7.1981e+00|  5.0530e-09|  7.7121e-01|  5.0000e-01|  5.0000e-01|  5.0000e-01|   -4.877179|   -4.921422|   -5.581648|   -5.599510|   -5.149076|   -7.771327|    2.222252|
|         230|  7.1977e+00|  5.0529e-09|  7.7121e-01|  5.0000e-01|  5.0000e-01|  5.0000e-01|   -4.877212|   -4.921466|   -5.581516|   -5.599462|   -5.149072|   -7.771031|    2.222161|
|         231|  7.1981e+00|  5.0527e-09|  7.7121e-01|  5.0000e-01|  5.0000e-01|  5.0000e-01|   -4.877245|   -4.921512|   -5.581386|   -5.599413|   -5.149068|   -7.770741|    2.222071|
|         232|  7.1984e+00|  5.0525e-09|  7.7121e-01|  5.0000e-01|  5.0000e-01|  5.0000e-01|   -4.877279|   -4.921558|   -5.581256|   -5.599362|   -5.149066|   -7.770457|    2.221983|
|         233|  7.1987e+00|  5.0524e-09|  7.7121e-01|  5.0000e-01|  5.0000e-01|  5.0000e-01|   -4.877314|   -4.921605|   -5.581127|   -5.599310|   -5.149065|   -7.770179|    2.221895|
|         234|  7.1990e+00|  5.0522e-09|  7.7121e-01|  5.0000e-01|  5.0000e-01|  5.0000e-01|   -4.877350|   -4.921653|   -5.580999|   -5.599257|   -5.149065|   -7.769909|    2.221808|
|         235|  7.1986e+00|  5.0520e-09|  7.7121e-01|  5.0000e-01|  5.0000e-01|  5.0000e-01|   -4.877386|   -4.921700|   -5.580872|   -5.599202|   -5.149065|   -7.769647|    2.221722|
|         236|  7.1980e+00|  5.0519e-09|  7.7121e-01|  5.0000e-01|  5.0000e-01|  5.0000e-01|   -4.877422|   -4.921748|   -5.580746|   -5.599144|   -5.149066|   -7.769391|    2.221636|
|         237|  7.1983e+00|  5.0517e-09|  7.7121e-01|  5.0000e-01|  5.0000e-01|  5.0000e-01|   -4.877458|   -4.921795|   -5.580619|   -5.599084|   -5.149067|   -7.769142|    2.221552|
|         238|  7.1979e+00|  5.0515e-09|  7.7121e-01|  5.0000e-01|  5.0000e-01|  5.0000e-01|   -4.877494|   -4.921842|   -5.580495|   -5.599023|   -5.149069|   -7.768899|    2.221468|
|         239|  7.1975e+00|  5.0514e-09|  7.7122e-01|  5.0000e-01|  5.0000e-01|  5.0000e-01|   -4.877531|   -4.921889|   -5.580372|   -5.598960|   -5.149070|   -7.768662|    2.221385|
|         240|  7.1971e+00|  5.0512e-09|  7.7122e-01|  5.0000e-01|  5.0000e-01|  5.0000e-01|   -4.877568|   -4.921936|   -5.580252|   -5.598896|   -5.149073|   -7.768432|    2.221303|
|         241|  7.1966e+00|  5.0510e-09|  7.7122e-01|  5.0000e-01|  5.0000e-01|  5.0000e-01|   -4.877607|   -4.921985|   -5.580133|   -5.598831|   -5.149077|   -7.768208|    2.221222|
|         242|  7.1964e+00|  5.0509e-09|  7.7122e-01|  5.0000e-01|  5.0000e-01|  5.0000e-01|   -4.877645|   -4.922033|   -5.580015|   -5.598763|   -5.149082|   -7.767991|    2.221142|
|         243|  7.1960e+00|  5.0507e-09|  7.7122e-01|  5.0000e-01|  5.0000e-01|  5.0000e-01|   -4.877684|   -4.922082|   -5.579898|   -5.598694|   -5.149087|   -7.767781|    2.221063|
|         244|  7.1956e+00|  5.0505e-09|  7.7122e-01|  5.0000e-01|  5.0000e-01|  5.0000e-01|   -4.877723|   -4.922131|   -5.579783|   -5.598623|   -5.149093|   -7.767577|    2.220984|
|         245|  7.1949e+00|  5.0504e-09|  7.7122e-01|  5.0000e-01|  5.0000e-01|  5.0000e-01|   -4.877763|   -4.922181|   -5.579669|   -5.598552|   -5.149099|   -7.767381|    2.220907|
|         246|  7.1949e+00|  5.0502e-09|  7.7122e-01|  5.0000e-01|  5.0000e-01|  5.0000e-01|   -4.877803|   -4.922232|   -5.579556|   -5.598478|   -5.149106|   -7.767191|    2.220830|
|         247|  7.1940e+00|  5.0500e-09|  7.7122e-01|  5.0000e-01|  5.0000e-01|  5.0000e-01|   -4.877844|   -4.922283|   -5.579442|   -5.598403|   -5.149114|   -7.767008|    2.220754|
|         248|  7.1957e+00|  5.0498e-09|  7.7122e-01|  5.0000e-01|  5.0000e-01|  5.0000e-01|   -4.877884|   -4.922335|   -5.579329|   -5.598325|   -5.149122|   -7.766832|    2.220679|
|         249|  7.1965e+00|  5.0497e-09|  7.7122e-01|  5.0000e-01|  5.0000e-01|  5.0000e-01|   -4.877925|   -4.922386|   -5.579217|   -5.598245|   -5.149131|   -7.766662|    2.220604|
|         250|  7.1972e+00|  5.0495e-09|  7.7122e-01|  5.0000e-01|  5.0000e-01|  5.0000e-01|   -4.877965|   -4.922437|   -5.579105|   -5.598162|   -5.149138|   -7.766500|    2.220531|
|         251|  7.1969e+00|  5.0493e-09|  7.7122e-01|  5.0000e-01|  5.0000e-01|  5.0000e-01|   -4.878005|   -4.922489|   -5.578995|   -5.598077|   -5.149146|   -7.766345|    2.220458|
|         252|  7.1972e+00|  5.0491e-09|  7.7122e-01|  5.0000e-01|  5.0000e-01|  5.0000e-01|   -4.878043|   -4.922540|   -5.578886|   -5.597990|   -5.149153|   -7.766197|    2.220387|
|         253|  7.1973e+00|  5.0490e-09|  7.7122e-01|  5.0000e-01|  5.0000e-01|  5.0000e-01|   -4.878082|   -4.922592|   -5.578778|   -5.597899|   -5.149160|   -7.766056|    2.220316|
|         254|  7.1967e+00|  5.0488e-09|  7.7122e-01|  5.0000e-01|  5.0000e-01|  5.0000e-01|   -4.878119|   -4.922642|   -5.578669|   -5.597807|   -5.149166|   -7.765922|    2.220245|
|         255|  7.1959e+00|  5.0486e-09|  7.7122e-01|  5.0000e-01|  5.0000e-01|  5.0000e-01|   -4.878155|   -4.922693|   -5.578559|   -5.597711|   -5.149171|   -7.765796|    2.220176|
|         256|  7.1957e+00|  5.0484e-09|  7.7122e-01|  5.0000e-01|  5.0000e-01|  5.0000e-01|   -4.878190|   -4.922743|   -5.578448|   -5.597611|   -5.149175|   -7.765676|    2.220108|
|         257|  7.1955e+00|  5.0482e-09|  7.7122e-01|  5.0000e-01|  5.0000e-01|  5.0000e-01|   -4.878223|   -4.922792|   -5.578336|   -5.597509|   -5.149178|   -7.765564|    2.220040|
|         258|  7.1947e+00|  5.0481e-09|  7.7122e-01|  5.0000e-01|  5.0000e-01|  5.0000e-01|   -4.878256|   -4.922841|   -5.578226|   -5.597404|   -5.149181|   -7.765459|    2.219973|
|         259|  7.1946e+00|  5.0479e-09|  7.7122e-01|  5.0000e-01|  5.0000e-01|  5.0000e-01|   -4.878289|   -4.922890|   -5.578117|   -5.597298|   -5.149183|   -7.765361|    2.219907|
|         260|  7.1939e+00|  5.0477e-09|  7.7122e-01|  5.0000e-01|  5.0000e-01|  5.0000e-01|   -4.878320|   -4.922939|   -5.578009|   -5.597189|   -5.149185|   -7.765270|    2.219842|
|         261|  7.1930e+00|  5.0475e-09|  7.7122e-01|  5.0000e-01|  5.0000e-01|  5.0000e-01|   -4.878351|   -4.922987|   -5.577902|   -5.597077|   -5.149186|   -7.765187|    2.219778|
|         262|  7.1925e+00|  5.0473e-09|  7.7122e-01|  5.0000e-01|  5.0000e-01|  5.0000e-01|   -4.878381|   -4.923036|   -5.577796|   -5.596962|   -5.149187|   -7.765111|    2.219715|
|         263|  7.1918e+00|  5.0471e-09|  7.7122e-01|  5.0000e-01|  5.0000e-01|  5.0000e-01|   -4.878412|   -4.923083|   -5.577691|   -5.596844|   -5.149188|   -7.765043|    2.219652|
|         264|  7.1918e+00|  5.0469e-09|  7.7122e-01|  5.0000e-01|  5.0000e-01|  5.0000e-01|   -4.878439|   -4.923129|   -5.577585|   -5.596722|   -5.149186|   -7.764981|    2.219590|
|         265|  7.1922e+00|  5.0468e-09|  7.7122e-01|  5.0000e-01|  5.0000e-01|  5.0000e-01|   -4.878466|   -4.923174|   -5.577480|   -5.596599|   -5.149183|   -7.764927|    2.219529|
|         266|  7.1922e+00|  5.0466e-09|  7.7122e-01|  5.0000e-01|  5.0000e-01|  5.0000e-01|   -4.878492|   -4.923218|   -5.577377|   -5.596473|   -5.149180|   -7.764881|    2.219469|
|         267|  7.1919e+00|  5.0464e-09|  7.7122e-01|  5.0000e-01|  5.0000e-01|  5.0000e-01|   -4.878518|   -4.923261|   -5.577276|   -5.596345|   -5.149176|   -7.764841|    2.219410|
|         268|  7.1918e+00|  5.0462e-09|  7.7122e-01|  5.0000e-01|  5.0000e-01|  5.0000e-01|   -4.878544|   -4.923305|   -5.577176|   -5.596214|   -5.149173|   -7.764809|    2.219351|
|         269|  7.1917e+00|  5.0460e-09|  7.7122e-01|  5.0000e-01|  5.0000e-01|  5.0000e-01|   -4.878569|   -4.923348|   -5.577076|   -5.596080|   -5.149168|   -7.764784|    2.219293|
|         270|  7.1912e+00|  5.0458e-09|  7.7122e-01|  5.0000e-01|  5.0000e-01|  5.0000e-01|   -4.878593|   -4.923391|   -5.576976|   -5.595943|   -5.149162|   -7.764767|    2.219237|
|         271|  7.1905e+00|  5.0456e-09|  7.7122e-01|  5.0000e-01|  5.0000e-01|  5.0000e-01|   -4.878617|   -4.923433|   -5.576878|   -5.595802|   -5.149156|   -7.764757|    2.219181|
|         272|  7.1895e+00|  5.0454e-09|  7.7122e-01|  5.0000e-01|  5.0000e-01|  5.0000e-01|   -4.878640|   -4.923475|   -5.576781|   -5.595659|   -5.149149|   -7.764754|    2.219125|
|         273|  7.1893e+00|  5.0452e-09|  7.7122e-01|  5.0000e-01|  5.0000e-01|  5.0000e-01|   -4.878661|   -4.923515|   -5.576683|   -5.595511|   -5.149140|   -7.764757|    2.219071|
|         274|  7.1894e+00|  5.0450e-09|  7.7122e-01|  5.0000e-01|  5.0000e-01|  5.0000e-01|   -4.878681|   -4.923554|   -5.576586|   -5.595360|   -5.149130|   -7.764768|    2.219017|
|         275|  7.1887e+00|  5.0449e-09|  7.7122e-01|  5.0000e-01|  5.0000e-01|  5.0000e-01|   -4.878700|   -4.923592|   -5.576488|   -5.595207|   -5.149118|   -7.764786|    2.218965|
|         276|  7.1882e+00|  5.0447e-09|  7.7122e-01|  5.0000e-01|  5.0000e-01|  5.0000e-01|   -4.878719|   -4.923630|   -5.576392|   -5.595050|   -5.149107|   -7.764811|    2.218913|
|         277|  7.1878e+00|  5.0445e-09|  7.7122e-01|  5.0000e-01|  5.0000e-01|  5.0000e-01|   -4.878738|   -4.923667|   -5.576296|   -5.594891|   -5.149095|   -7.764844|    2.218861|
|         278|  7.1879e+00|  5.0443e-09|  7.7122e-01|  5.0000e-01|  5.0000e-01|  5.0000e-01|   -4.878756|   -4.923705|   -5.576201|   -5.594728|   -5.149082|   -7.764884|    2.218811|
|         279|  7.1877e+00|  5.0441e-09|  7.7122e-01|  5.0000e-01|  5.0000e-01|  5.0000e-01|   -4.878773|   -4.923741|   -5.576106|   -5.594564|   -5.149068|   -7.764931|    2.218762|
|         280|  7.1867e+00|  5.0439e-09|  7.7122e-01|  5.0000e-01|  5.0000e-01|  5.0000e-01|   -4.878790|   -4.923778|   -5.576010|   -5.594397|   -5.149054|   -7.764985|    2.218713|
|         281|  7.1864e+00|  5.0437e-09|  7.7122e-01|  5.0000e-01|  5.0000e-01|  5.0000e-01|   -4.878806|   -4.923814|   -5.575915|   -5.594227|   -5.149039|   -7.765047|    2.218665|
|         282|  7.1865e+00|  5.0435e-09|  7.7122e-01|  5.0000e-01|  5.0000e-01|  5.0000e-01|   -4.878823|   -4.923851|   -5.575821|   -5.594055|   -5.149025|   -7.765116|    2.218618|
|         283|  7.1861e+00|  5.0433e-09|  7.7122e-01|  5.0000e-01|  5.0000e-01|  5.0000e-01|   -4.878840|   -4.923889|   -5.575727|   -5.593881|   -5.149011|   -7.765192|    2.218572|
|         284|  7.1853e+00|  5.0431e-09|  7.7122e-01|  5.0000e-01|  5.0000e-01|  5.0000e-01|   -4.878856|   -4.923926|   -5.575632|   -5.593706|   -5.148995|   -7.765275|    2.218526|
|         285|  7.1854e+00|  5.0429e-09|  7.7122e-01|  5.0000e-01|  5.0000e-01|  5.0000e-01|   -4.878871|   -4.923963|   -5.575537|   -5.593528|   -5.148979|   -7.765366|    2.218482|
|         286|  7.1850e+00|  5.0427e-09|  7.7122e-01|  5.0000e-01|  5.0000e-01|  5.0000e-01|   -4.878886|   -4.923999|   -5.575443|   -5.593348|   -5.148963|   -7.765463|    2.218438|
|         287|  7.1847e+00|  5.0425e-09|  7.7122e-01|  5.0000e-01|  5.0000e-01|  5.0000e-01|   -4.878901|   -4.924035|   -5.575348|   -5.593167|   -5.148947|   -7.765568|    2.218395|
|         288|  7.1842e+00|  5.0423e-09|  7.7122e-01|  5.0000e-01|  5.0000e-01|  5.0000e-01|   -4.878916|   -4.924071|   -5.575254|   -5.592982|   -5.148930|   -7.765680|    2.218352|
|         289|  7.1834e+00|  5.0421e-09|  7.7122e-01|  5.0000e-01|  5.0000e-01|  5.0000e-01|   -4.878930|   -4.924108|   -5.575160|   -5.592795|   -5.148913|   -7.765798|    2.218311|
|         290|  7.1829e+00|  5.0419e-09|  7.7122e-01|  5.0000e-01|  5.0000e-01|  5.0000e-01|   -4.878945|   -4.924144|   -5.575066|   -5.592605|   -5.148896|   -7.765924|    2.218270|
|         291|  7.1821e+00|  5.0417e-09|  7.7122e-01|  5.0000e-01|  5.0000e-01|  5.0000e-01|   -4.878959|   -4.924180|   -5.574971|   -5.592411|   -5.148878|   -7.766057|    2.218230|
|         292|  7.1818e+00|  5.0415e-09|  7.7122e-01|  5.0000e-01|  5.0000e-01|  5.0000e-01|   -4.878972|   -4.924216|   -5.574876|   -5.592215|   -5.148860|   -7.766196|    2.218191|
|         293|  7.1812e+00|  5.0413e-09|  7.7122e-01|  5.0000e-01|  5.0000e-01|  5.0000e-01|   -4.878985|   -4.924253|   -5.574783|   -5.592018|   -5.148841|   -7.766343|    2.218153|
|         294|  7.1807e+00|  5.0411e-09|  7.7122e-01|  5.0000e-01|  5.0000e-01|  5.0000e-01|   -4.878998|   -4.924289|   -5.574688|   -5.591820|   -5.148823|   -7.766496|    2.218116|
|         295|  7.1803e+00|  5.0409e-09|  7.7122e-01|  5.0000e-01|  5.0000e-01|  5.0000e-01|   -4.879010|   -4.924325|   -5.574593|   -5.591623|   -5.148803|   -7.766656|    2.218079|
|         296|  7.1794e+00|  5.0406e-09|  7.7122e-01|  5.0000e-01|  5.0000e-01|  5.0000e-01|   -4.879022|   -4.924360|   -5.574498|   -5.591425|   -5.148784|   -7.766823|    2.218043|
|         297|  7.1787e+00|  5.0404e-09|  7.7122e-01|  5.0000e-01|  5.0000e-01|  5.0000e-01|   -4.879034|   -4.924395|   -5.574402|   -5.591226|   -5.148764|   -7.766997|    2.218008|
|         298|  7.1782e+00|  5.0402e-09|  7.7122e-01|  5.0000e-01|  5.0000e-01|  5.0000e-01|   -4.879044|   -4.924428|   -5.574308|   -5.591028|   -5.148742|   -7.767178|    2.217974|
|         299|  7.1776e+00|  5.0400e-09|  7.7122e-01|  5.0000e-01|  5.0000e-01|  5.0000e-01|   -4.879054|   -4.924462|   -5.574212|   -5.590830|   -5.148721|   -7.767365|    2.217940|
|         300|  7.1772e+00|  5.0398e-09|  7.7122e-01|  5.0000e-01|  5.0000e-01|  5.0000e-01|   -4.879065|   -4.924497|   -5.574117|   -5.590631|   -5.148701|   -7.767559|    2.217908|
+-----------------------------------------------------------------------+
|        File Writing Summary       |              Filename             |
+-----------------------------------------------------------------------+
|SU2 binary restart                 |restart_flow.dat                   |
|Paraview                           |flow.vtu                           |
|Paraview surface                   |surface_flow.vtu                   |
+-----------------------------------------------------------------------+
+-------------------------------------------------------------------------------------------------------------------------------------------------------------------------------------+
|  Inner_Iter|   Time(sec)|      Min DT|      Max DT|     Min CFL|     Max CFL|     Avg CFL|    rms[Rho]|   rms[RhoU]|   rms[RhoV]|   rms[RhoW]|   rms[RhoE]|     rms[nu]|          CD|
+-------------------------------------------------------------------------------------------------------------------------------------------------------------------------------------+
|         301|  7.2532e+00|  5.0396e-09|  7.7122e-01|  5.0000e-01|  5.0000e-01|  5.0000e-01|   -4.879077|   -4.924532|   -5.574022|   -5.590431|   -5.148682|   -7.767759|    2.217876|
|         302|  7.2550e+00|  5.0394e-09|  7.7122e-01|  5.0000e-01|  5.0000e-01|  5.0000e-01|   -4.879089|   -4.924569|   -5.573928|   -5.590231|   -5.148663|   -7.767966|    2.217845|
|         303|  7.2558e+00|  5.0392e-09|  7.7122e-01|  5.0000e-01|  5.0000e-01|  5.0000e-01|   -4.879103|   -4.924606|   -5.573833|   -5.590029|   -5.148646|   -7.768179|    2.217814|
|         304|  7.2555e+00|  5.0390e-09|  7.7122e-01|  5.0000e-01|  5.0000e-01|  5.0000e-01|   -4.879116|   -4.924644|   -5.573738|   -5.589825|   -5.148628|   -7.768399|    2.217785|
|         305|  7.2552e+00|  5.0388e-09|  7.7122e-01|  5.0000e-01|  5.0000e-01|  5.0000e-01|   -4.879129|   -4.924683|   -5.573642|   -5.589619|   -5.148610|   -7.768625|    2.217756|
|         306|  7.2543e+00|  5.0386e-09|  7.7122e-01|  5.0000e-01|  5.0000e-01|  5.0000e-01|   -4.879143|   -4.924722|   -5.573545|   -5.589410|   -5.148593|   -7.768858|    2.217728|
|         307|  7.2534e+00|  5.0383e-09|  7.7122e-01|  5.0000e-01|  5.0000e-01|  5.0000e-01|   -4.879157|   -4.924763|   -5.573447|   -5.589200|   -5.148577|   -7.769096|    2.217701|
|         308|  7.2520e+00|  5.0381e-09|  7.7122e-01|  5.0000e-01|  5.0000e-01|  5.0000e-01|   -4.879172|   -4.924804|   -5.573349|   -5.588990|   -5.148561|   -7.769341|    2.217675|
|         309|  7.2513e+00|  5.0379e-09|  7.7122e-01|  5.0000e-01|  5.0000e-01|  5.0000e-01|   -4.879188|   -4.924846|   -5.573249|   -5.588778|   -5.148547|   -7.769592|    2.217649|
|         310|  7.2504e+00|  5.0377e-09|  7.7122e-01|  5.0000e-01|  5.0000e-01|  5.0000e-01|   -4.879205|   -4.924888|   -5.573149|   -5.588565|   -5.148534|   -7.769849|    2.217624|
|         311|  7.2494e+00|  5.0375e-09|  7.7122e-01|  5.0000e-01|  5.0000e-01|  5.0000e-01|   -4.879221|   -4.924929|   -5.573049|   -5.588350|   -5.148520|   -7.770112|    2.217600|
|         312|  7.2487e+00|  5.0373e-09|  7.7122e-01|  5.0000e-01|  5.0000e-01|  5.0000e-01|   -4.879239|   -4.924970|   -5.572950|   -5.588133|   -5.148508|   -7.770381|    2.217577|
|         313|  7.2479e+00|  5.0371e-09|  7.7122e-01|  5.0000e-01|  5.0000e-01|  5.0000e-01|   -4.879258|   -4.925013|   -5.572850|   -5.587913|   -5.148496|   -7.770657|    2.217555|
|         314|  7.2472e+00|  5.0369e-09|  7.7122e-01|  5.0000e-01|  5.0000e-01|  5.0000e-01|   -4.879279|   -4.925057|   -5.572750|   -5.587690|   -5.148486|   -7.770938|    2.217533|
|         315|  7.2466e+00|  5.0366e-09|  7.7122e-01|  5.0000e-01|  5.0000e-01|  5.0000e-01|   -4.879300|   -4.925101|   -5.572651|   -5.587465|   -5.148477|   -7.771224|    2.217512|
|         316|  7.2457e+00|  5.0364e-09|  7.7122e-01|  5.0000e-01|  5.0000e-01|  5.0000e-01|   -4.879322|   -4.925143|   -5.572552|   -5.587237|   -5.148467|   -7.771516|    2.217492|
|         317|  7.2447e+00|  5.0362e-09|  7.7122e-01|  5.0000e-01|  5.0000e-01|  5.0000e-01|   -4.879343|   -4.925186|   -5.572453|   -5.587005|   -5.148457|   -7.771813|    2.217473|
|         318|  7.2441e+00|  5.0360e-09|  7.7122e-01|  5.0000e-01|  5.0000e-01|  5.0000e-01|   -4.879367|   -4.925231|   -5.572355|   -5.586771|   -5.148450|   -7.772116|    2.217455|
|         319|  7.2433e+00|  5.0358e-09|  7.7122e-01|  5.0000e-01|  5.0000e-01|  5.0000e-01|   -4.879393|   -4.925277|   -5.572256|   -5.586534|   -5.148444|   -7.772423|    2.217437|
|         320|  7.2421e+00|  5.0356e-09|  7.7122e-01|  5.0000e-01|  5.0000e-01|  5.0000e-01|   -4.879420|   -4.925325|   -5.572155|   -5.586293|   -5.148439|   -7.772736|    2.217420|
|         321|  7.2408e+00|  5.0353e-09|  7.7122e-01|  5.0000e-01|  5.0000e-01|  5.0000e-01|   -4.879449|   -4.925375|   -5.572055|   -5.586050|   -5.148437|   -7.773055|    2.217404|
|         322|  7.2398e+00|  5.0351e-09|  7.7122e-01|  5.0000e-01|  5.0000e-01|  5.0000e-01|   -4.879481|   -4.925427|   -5.571956|   -5.585803|   -5.148437|   -7.773378|    2.217389|
|         323|  7.2388e+00|  5.0349e-09|  7.7122e-01|  5.0000e-01|  5.0000e-01|  5.0000e-01|   -4.879515|   -4.925482|   -5.571856|   -5.585553|   -5.148438|   -7.773706|    2.217375|
|         324|  7.2380e+00|  5.0347e-09|  7.7122e-01|  5.0000e-01|  5.0000e-01|  5.0000e-01|   -4.879550|   -4.925538|   -5.571757|   -5.585297|   -5.148441|   -7.774040|    2.217361|
|         325|  7.2372e+00|  5.0345e-09|  7.7122e-01|  5.0000e-01|  5.0000e-01|  5.0000e-01|   -4.879587|   -4.925597|   -5.571657|   -5.585038|   -5.148447|   -7.774378|    2.217348|
|         326|  7.2360e+00|  5.0342e-09|  7.7122e-01|  5.0000e-01|  5.0000e-01|  5.0000e-01|   -4.879627|   -4.925658|   -5.571556|   -5.584775|   -5.148454|   -7.774721|    2.217336|
|         327|  7.2348e+00|  5.0340e-09|  7.7122e-01|  5.0000e-01|  5.0000e-01|  5.0000e-01|   -4.879668|   -4.925721|   -5.571455|   -5.584507|   -5.148464|   -7.775069|    2.217325|
|         328|  7.2335e+00|  5.0338e-09|  7.7122e-01|  5.0000e-01|  5.0000e-01|  5.0000e-01|   -4.879712|   -4.925786|   -5.571354|   -5.584236|   -5.148476|   -7.775422|    2.217315|
|         329|  7.2327e+00|  5.0336e-09|  7.7122e-01|  5.0000e-01|  5.0000e-01|  5.0000e-01|   -4.879758|   -4.925854|   -5.571253|   -5.583962|   -5.148490|   -7.775779|    2.217305|
|         330|  7.2324e+00|  5.0334e-09|  7.7122e-01|  5.0000e-01|  5.0000e-01|  5.0000e-01|   -4.879805|   -4.925924|   -5.571152|   -5.583685|   -5.148505|   -7.776141|    2.217296|
|         331|  7.2319e+00|  5.0331e-09|  7.7122e-01|  5.0000e-01|  5.0000e-01|  5.0000e-01|   -4.879854|   -4.925996|   -5.571050|   -5.583403|   -5.148523|   -7.776507|    2.217289|
|         332|  7.2312e+00|  5.0329e-09|  7.7122e-01|  5.0000e-01|  5.0000e-01|  5.0000e-01|   -4.879905|   -4.926071|   -5.570948|   -5.583119|   -5.148542|   -7.776877|    2.217282|
|         333|  7.2305e+00|  5.0327e-09|  7.7122e-01|  5.0000e-01|  5.0000e-01|  5.0000e-01|   -4.879958|   -4.926147|   -5.570847|   -5.582831|   -5.148563|   -7.777252|    2.217275|
|         334|  7.2297e+00|  5.0325e-09|  7.7122e-01|  5.0000e-01|  5.0000e-01|  5.0000e-01|   -4.880011|   -4.926224|   -5.570746|   -5.582541|   -5.148585|   -7.777631|    2.217270|
|         335|  7.2289e+00|  5.0323e-09|  7.7122e-01|  5.0000e-01|  5.0000e-01|  5.0000e-01|   -4.880067|   -4.926305|   -5.570646|   -5.582249|   -5.148610|   -7.778015|    2.217265|
|         336|  7.2281e+00|  5.0320e-09|  7.7122e-01|  5.0000e-01|  5.0000e-01|  5.0000e-01|   -4.880124|   -4.926388|   -5.570548|   -5.581954|   -5.148636|   -7.778402|    2.217262|
|         337|  7.2273e+00|  5.0318e-09|  7.7122e-01|  5.0000e-01|  5.0000e-01|  5.0000e-01|   -4.880182|   -4.926473|   -5.570449|   -5.581657|   -5.148665|   -7.778793|    2.217259|
|         338|  7.2268e+00|  5.0316e-09|  7.7122e-01|  5.0000e-01|  5.0000e-01|  5.0000e-01|   -4.880243|   -4.926561|   -5.570351|   -5.581359|   -5.148695|   -7.779188|    2.217257|
|         339|  7.2262e+00|  5.0314e-09|  7.7122e-01|  5.0000e-01|  5.0000e-01|  5.0000e-01|   -4.880305|   -4.926651|   -5.570252|   -5.581058|   -5.148727|   -7.779587|    2.217256|
|         340|  7.2253e+00|  5.0312e-09|  7.7122e-01|  5.0000e-01|  5.0000e-01|  5.0000e-01|   -4.880368|   -4.926744|   -5.570153|   -5.580755|   -5.148761|   -7.779990|    2.217255|
|         341|  7.2242e+00|  5.0309e-09|  7.7123e-01|  5.0000e-01|  5.0000e-01|  5.0000e-01|   -4.880433|   -4.926839|   -5.570055|   -5.580451|   -5.148797|   -7.780397|    2.217256|
|         342|  7.2230e+00|  5.0307e-09|  7.7123e-01|  5.0000e-01|  5.0000e-01|  5.0000e-01|   -4.880499|   -4.926937|   -5.569957|   -5.580146|   -5.148835|   -7.780807|    2.217257|
|         343|  7.2221e+00|  5.0305e-09|  7.7123e-01|  5.0000e-01|  5.0000e-01|  5.0000e-01|   -4.880566|   -4.927038|   -5.569858|   -5.579837|   -5.148874|   -7.781220|    2.217259|
|         344|  7.2214e+00|  5.0303e-09|  7.7123e-01|  5.0000e-01|  5.0000e-01|  5.0000e-01|   -4.880635|   -4.927140|   -5.569759|   -5.579526|   -5.148914|   -7.781637|    2.217263|
|         345|  7.2207e+00|  5.0300e-09|  7.7123e-01|  5.0000e-01|  5.0000e-01|  5.0000e-01|   -4.880703|   -4.927245|   -5.569659|   -5.579214|   -5.148956|   -7.782058|    2.217266|
|         346|  7.2197e+00|  5.0298e-09|  7.7123e-01|  5.0000e-01|  5.0000e-01|  5.0000e-01|   -4.880773|   -4.927352|   -5.569560|   -5.578901|   -5.149000|   -7.782481|    2.217271|
|         347|  7.2190e+00|  5.0296e-09|  7.7123e-01|  5.0000e-01|  5.0000e-01|  5.0000e-01|   -4.880844|   -4.927462|   -5.569462|   -5.578586|   -5.149045|   -7.782908|    2.217277|
|         348|  7.2177e+00|  5.0294e-09|  7.7123e-01|  5.0000e-01|  5.0000e-01|  5.0000e-01|   -4.880916|   -4.927572|   -5.569363|   -5.578271|   -5.149090|   -7.783338|    2.217284|
|         349|  7.2165e+00|  5.0291e-09|  7.7123e-01|  5.0000e-01|  5.0000e-01|  5.0000e-01|   -4.880988|   -4.927686|   -5.569264|   -5.577955|   -5.149138|   -7.783771|    2.217291|
[...]
|        9461|  6.7089e+00|  4.2536e-09|  7.7120e-01|  5.0000e-01|  5.0000e-01|  5.0000e-01|   -4.574596|   -4.639274|   -5.258703|   -5.056729|   -4.846937|   -7.578785|    2.466618|
|        9462|  6.7089e+00|  4.2536e-09|  7.7120e-01|  5.0000e-01|  5.0000e-01|  5.0000e-01|   -4.574718|   -4.639476|   -5.258811|   -5.056362|   -4.847033|   -7.580352|    2.466830|
|        9463|  6.7089e+00|  4.2535e-09|  7.7119e-01|  5.0000e-01|  5.0000e-01|  5.0000e-01|   -4.574841|   -4.639681|   -5.258919|   -5.055998|   -4.847131|   -7.581921|    2.467038|
|        9464|  6.7089e+00|  4.2534e-09|  7.7119e-01|  5.0000e-01|  5.0000e-01|  5.0000e-01|   -4.574967|   -4.639889|   -5.259030|   -5.055635|   -4.847232|   -7.583489|    2.467245|
|        9465|  6.7088e+00|  4.2533e-09|  7.7119e-01|  5.0000e-01|  5.0000e-01|  5.0000e-01|   -4.575094|   -4.640099|   -5.259141|   -5.055275|   -4.847335|   -7.585057|    2.467450|
|        9466|  6.7088e+00|  4.2533e-09|  7.7119e-01|  5.0000e-01|  5.0000e-01|  5.0000e-01|   -4.575224|   -4.640310|   -5.259255|   -5.054917|   -4.847439|   -7.586624|    2.467652|
|        9467|  6.7088e+00|  4.2532e-09|  7.7119e-01|  5.0000e-01|  5.0000e-01|  5.0000e-01|   -4.575356|   -4.640524|   -5.259370|   -5.054561|   -4.847546|   -7.588190|    2.467852|
|        9468|  6.7087e+00|  4.2531e-09|  7.7119e-01|  5.0000e-01|  5.0000e-01|  5.0000e-01|   -4.575489|   -4.640740|   -5.259488|   -5.054208|   -4.847654|   -7.589754|    2.468050|
|        9469|  6.7087e+00|  4.2530e-09|  7.7119e-01|  5.0000e-01|  5.0000e-01|  5.0000e-01|   -4.575625|   -4.640959|   -5.259606|   -5.053857|   -4.847765|   -7.591316|    2.468245|
|        9470|  6.7086e+00|  4.2529e-09|  7.7119e-01|  5.0000e-01|  5.0000e-01|  5.0000e-01|   -4.575763|   -4.641180|   -5.259727|   -5.053509|   -4.847879|   -7.592875|    2.468439|
|        9471|  6.7086e+00|  4.2529e-09|  7.7119e-01|  5.0000e-01|  5.0000e-01|  5.0000e-01|   -4.575904|   -4.641405|   -5.259851|   -5.053164|   -4.847996|   -7.594431|    2.468630|
|        9472|  6.7085e+00|  4.2528e-09|  7.7119e-01|  5.0000e-01|  5.0000e-01|  5.0000e-01|   -4.576047|   -4.641633|   -5.259977|   -5.052822|   -4.848115|   -7.595983|    2.468819|
|        9473|  6.7085e+00|  4.2527e-09|  7.7119e-01|  5.0000e-01|  5.0000e-01|  5.0000e-01|   -4.576192|   -4.641862|   -5.260105|   -5.052482|   -4.848236|   -7.597530|    2.469005|
|        9474|  6.7085e+00|  4.2526e-09|  7.7119e-01|  5.0000e-01|  5.0000e-01|  5.0000e-01|   -4.576339|   -4.642093|   -5.260234|   -5.052144|   -4.848359|   -7.599073|    2.469190|
|        9475|  6.7084e+00|  4.2525e-09|  7.7119e-01|  5.0000e-01|  5.0000e-01|  5.0000e-01|   -4.576487|   -4.642326|   -5.260366|   -5.051808|   -4.848484|   -7.600611|    2.469372|
|        9476|  6.7084e+00|  4.2525e-09|  7.7119e-01|  5.0000e-01|  5.0000e-01|  5.0000e-01|   -4.576637|   -4.642560|   -5.260499|   -5.051474|   -4.848610|   -7.602142|    2.469552|
|        9477|  6.7083e+00|  4.2524e-09|  7.7119e-01|  5.0000e-01|  5.0000e-01|  5.0000e-01|   -4.576788|   -4.642796|   -5.260634|   -5.051142|   -4.848738|   -7.603667|    2.469730|
|        9478|  6.7082e+00|  4.2523e-09|  7.7119e-01|  5.0000e-01|  5.0000e-01|  5.0000e-01|   -4.576941|   -4.643034|   -5.260769|   -5.050812|   -4.848868|   -7.605184|    2.469905|
|        9479|  6.7082e+00|  4.2522e-09|  7.7119e-01|  5.0000e-01|  5.0000e-01|  5.0000e-01|   -4.577095|   -4.643273|   -5.260905|   -5.050484|   -4.848999|   -7.606693|    2.470078|
|        9480|  6.7081e+00|  4.2521e-09|  7.7119e-01|  5.0000e-01|  5.0000e-01|  5.0000e-01|   -4.577251|   -4.643513|   -5.261043|   -5.050159|   -4.849131|   -7.608193|    2.470249|
|        9481|  6.7081e+00|  4.2520e-09|  7.7119e-01|  5.0000e-01|  5.0000e-01|  5.0000e-01|   -4.577408|   -4.643756|   -5.261181|   -5.049836|   -4.849266|   -7.609684|    2.470418|
|        9482|  6.7080e+00|  4.2519e-09|  7.7119e-01|  5.0000e-01|  5.0000e-01|  5.0000e-01|   -4.577577|   -4.644012|   -5.261327|   -5.049518|   -4.849413|   -7.611166|    2.470585|
|        9483|  6.7080e+00|  4.2519e-09|  7.7119e-01|  5.0000e-01|  5.0000e-01|  5.0000e-01|   -4.577746|   -4.644268|   -5.261472|   -5.049202|   -4.849559|   -7.612638|    2.470749|
|        9484|  6.7080e+00|  4.2518e-09|  7.7119e-01|  5.0000e-01|  5.0000e-01|  5.0000e-01|   -4.577916|   -4.644525|   -5.261615|   -5.048888|   -4.849706|   -7.614098|    2.470911|
|        9485|  6.7079e+00|  4.2517e-09|  7.7119e-01|  5.0000e-01|  5.0000e-01|  5.0000e-01|   -4.578085|   -4.644782|   -5.261758|   -5.048576|   -4.849854|   -7.615547|    2.471071|
|        9486|  6.7079e+00|  4.2516e-09|  7.7119e-01|  5.0000e-01|  5.0000e-01|  5.0000e-01|   -4.578257|   -4.645041|   -5.261902|   -5.048267|   -4.850003|   -7.616984|    2.471229|
|        9487|  6.7078e+00|  4.2515e-09|  7.7119e-01|  5.0000e-01|  5.0000e-01|  5.0000e-01|   -4.578429|   -4.645301|   -5.262045|   -5.047961|   -4.850153|   -7.618408|    2.471384|
|        9488|  6.7078e+00|  4.2514e-09|  7.7119e-01|  5.0000e-01|  5.0000e-01|  5.0000e-01|   -4.578601|   -4.645562|   -5.262189|   -5.047656|   -4.850303|   -7.619819|    2.471537|
|        9489|  6.7077e+00|  4.2513e-09|  7.7119e-01|  5.0000e-01|  5.0000e-01|  5.0000e-01|   -4.578772|   -4.645822|   -5.262332|   -5.047350|   -4.850452|   -7.621217|    2.471688|
|        9490|  6.7077e+00|  4.2512e-09|  7.7119e-01|  5.0000e-01|  5.0000e-01|  5.0000e-01|   -4.578942|   -4.646083|   -5.262474|   -5.047046|   -4.850601|   -7.622599|    2.471836|
|        9491|  6.7077e+00|  4.2511e-09|  7.7119e-01|  5.0000e-01|  5.0000e-01|  5.0000e-01|   -4.579115|   -4.646346|   -5.262619|   -5.046748|   -4.850754|   -7.623967|    2.471983|
|        9492|  6.7076e+00|  4.2511e-09|  7.7119e-01|  5.0000e-01|  5.0000e-01|  5.0000e-01|   -4.579289|   -4.646609|   -5.262764|   -5.046453|   -4.850906|   -7.625320|    2.472127|
|        9493|  6.7076e+00|  4.2510e-09|  7.7119e-01|  5.0000e-01|  5.0000e-01|  5.0000e-01|   -4.579463|   -4.646873|   -5.262910|   -5.046161|   -4.851060|   -7.626656|    2.472268|
|        9494|  6.7075e+00|  4.2509e-09|  7.7119e-01|  5.0000e-01|  5.0000e-01|  5.0000e-01|   -4.579637|   -4.647138|   -5.263057|   -5.045870|   -4.851215|   -7.627975|    2.472408|
|        9495|  6.7075e+00|  4.2508e-09|  7.7119e-01|  5.0000e-01|  5.0000e-01|  5.0000e-01|   -4.579811|   -4.647402|   -5.263204|   -5.045581|   -4.851369|   -7.629278|    2.472545|
|        9496|  6.7074e+00|  4.2507e-09|  7.7119e-01|  5.0000e-01|  5.0000e-01|  5.0000e-01|   -4.579985|   -4.647666|   -5.263353|   -5.045293|   -4.851523|   -7.630562|    2.472680|
|        9497|  6.7074e+00|  4.2506e-09|  7.7119e-01|  5.0000e-01|  5.0000e-01|  5.0000e-01|   -4.580160|   -4.647930|   -5.263503|   -5.045007|   -4.851678|   -7.631828|    2.472812|
|        9498|  6.7074e+00|  4.2505e-09|  7.7119e-01|  5.0000e-01|  5.0000e-01|  5.0000e-01|   -4.580334|   -4.648194|   -5.263653|   -5.044723|   -4.851832|   -7.633075|    2.472942|
|        9499|  6.7073e+00|  4.2504e-09|  7.7119e-01|  5.0000e-01|  5.0000e-01|  5.0000e-01|   -4.580508|   -4.648458|   -5.263804|   -5.044441|   -4.851987|   -7.634303|    2.473070|
|        9500|  6.7073e+00|  4.2503e-09|  7.7119e-01|  5.0000e-01|  5.0000e-01|  5.0000e-01|   -4.580681|   -4.648721|   -5.263956|   -5.044159|   -4.852141|   -7.635510|    2.473196|
|        9501|  6.7073e+00|  4.2502e-09|  7.7119e-01|  5.0000e-01|  5.0000e-01|  5.0000e-01|   -4.580854|   -4.648984|   -5.264109|   -5.043879|   -4.852295|   -7.636697|    2.473319|
|        9502|  6.7072e+00|  4.2501e-09|  7.7119e-01|  5.0000e-01|  5.0000e-01|  5.0000e-01|   -4.581027|   -4.649247|   -5.264262|   -5.043601|   -4.852449|   -7.637862|    2.473440|
|        9503|  6.7072e+00|  4.2500e-09|  7.7119e-01|  5.0000e-01|  5.0000e-01|  5.0000e-01|   -4.581199|   -4.649510|   -5.264416|   -5.043325|   -4.852604|   -7.639006|    2.473559|
|        9504|  6.7071e+00|  4.2499e-09|  7.7119e-01|  5.0000e-01|  5.0000e-01|  5.0000e-01|   -4.581372|   -4.649773|   -5.264571|   -5.043050|   -4.852758|   -7.640127|    2.473675|
|        9505|  6.7071e+00|  4.2498e-09|  7.7119e-01|  5.0000e-01|  5.0000e-01|  5.0000e-01|   -4.581544|   -4.650035|   -5.264727|   -5.042776|   -4.852912|   -7.641225|    2.473789|
|        9506|  6.7071e+00|  4.2497e-09|  7.7119e-01|  5.0000e-01|  5.0000e-01|  5.0000e-01|   -4.581718|   -4.650299|   -5.264884|   -5.042507|   -4.853069|   -7.642301|    2.473900|
|        9507|  6.7070e+00|  4.2496e-09|  7.7119e-01|  5.0000e-01|  5.0000e-01|  5.0000e-01|   -4.581893|   -4.650564|   -5.265043|   -5.042241|   -4.853227|   -7.643353|    2.474009|
|        9508|  6.7070e+00|  4.2495e-09|  7.7119e-01|  5.0000e-01|  5.0000e-01|  5.0000e-01|   -4.582068|   -4.650828|   -5.265199|   -5.041977|   -4.853384|   -7.644382|    2.474116|
|        9509|  6.7069e+00|  4.2494e-09|  7.7119e-01|  5.0000e-01|  5.0000e-01|  5.0000e-01|   -4.582243|   -4.651093|   -5.265356|   -5.041714|   -4.853542|   -7.645386|    2.474220|
|        9510|  6.7068e+00|  4.2493e-09|  7.7119e-01|  5.0000e-01|  5.0000e-01|  5.0000e-01|   -4.582418|   -4.651357|   -5.265514|   -5.041454|   -4.853701|   -7.646366|    2.474322|
|        9511|  6.7068e+00|  4.2492e-09|  7.7119e-01|  5.0000e-01|  5.0000e-01|  5.0000e-01|   -4.582594|   -4.651622|   -5.265673|   -5.041196|   -4.853860|   -7.647321|    2.474421|
|        9512|  6.7068e+00|  4.2491e-09|  7.7119e-01|  5.0000e-01|  5.0000e-01|  5.0000e-01|   -4.582769|   -4.651886|   -5.265832|   -5.040940|   -4.854019|   -7.648250|    2.474518|
|        9513|  6.7067e+00|  4.2490e-09|  7.7119e-01|  5.0000e-01|  5.0000e-01|  5.0000e-01|   -4.582946|   -4.652151|   -5.265991|   -5.040687|   -4.854179|   -7.649153|    2.474613|
|        9514|  6.7067e+00|  4.2489e-09|  7.7119e-01|  5.0000e-01|  5.0000e-01|  5.0000e-01|   -4.583122|   -4.652415|   -5.266150|   -5.040436|   -4.854339|   -7.650030|    2.474705|
|        9515|  6.7066e+00|  4.2488e-09|  7.7119e-01|  5.0000e-01|  5.0000e-01|  5.0000e-01|   -4.583300|   -4.652680|   -5.266311|   -5.040188|   -4.854500|   -7.650880|    2.474794|
|        9516|  6.7066e+00|  4.2486e-09|  7.7119e-01|  5.0000e-01|  5.0000e-01|  5.0000e-01|   -4.583477|   -4.652946|   -5.266473|   -5.039941|   -4.854661|   -7.651702|    2.474882|
|        9517|  6.7065e+00|  4.2485e-09|  7.7119e-01|  5.0000e-01|  5.0000e-01|  5.0000e-01|   -4.583656|   -4.653211|   -5.266637|   -5.039696|   -4.854823|   -7.652498|    2.474966|
|        9518|  6.7065e+00|  4.2484e-09|  7.7119e-01|  5.0000e-01|  5.0000e-01|  5.0000e-01|   -4.583834|   -4.653477|   -5.266802|   -5.039453|   -4.854985|   -7.653265|    2.475048|
|        9519|  6.7064e+00|  4.2483e-09|  7.7119e-01|  5.0000e-01|  5.0000e-01|  5.0000e-01|   -4.584013|   -4.653743|   -5.266969|   -5.039213|   -4.855148|   -7.654005|    2.475128|
|        9520|  6.7064e+00|  4.2482e-09|  7.7119e-01|  5.0000e-01|  5.0000e-01|  5.0000e-01|   -4.584193|   -4.654009|   -5.267136|   -5.038975|   -4.855312|   -7.654717|    2.475205|
|        9521|  6.7063e+00|  4.2481e-09|  7.7119e-01|  5.0000e-01|  5.0000e-01|  5.0000e-01|   -4.584373|   -4.654276|   -5.267304|   -5.038738|   -4.855476|   -7.655400|    2.475280|
|        9522|  6.7063e+00|  4.2480e-09|  7.7119e-01|  5.0000e-01|  5.0000e-01|  5.0000e-01|   -4.584554|   -4.654543|   -5.267474|   -5.038505|   -4.855640|   -7.656054|    2.475352|
|        9523|  6.7062e+00|  4.2479e-09|  7.7119e-01|  5.0000e-01|  5.0000e-01|  5.0000e-01|   -4.584735|   -4.654810|   -5.267645|   -5.038274|   -4.855806|   -7.656680|    2.475421|
|        9524|  6.7062e+00|  4.2477e-09|  7.7119e-01|  5.0000e-01|  5.0000e-01|  5.0000e-01|   -4.584918|   -4.655079|   -5.267820|   -5.038046|   -4.855974|   -7.657276|    2.475488|
|        9525|  6.7061e+00|  4.2476e-09|  7.7119e-01|  5.0000e-01|  5.0000e-01|  5.0000e-01|   -4.585103|   -4.655349|   -5.267996|   -5.037823|   -4.856143|   -7.657843|    2.475553|
|        9526|  6.7061e+00|  4.2475e-09|  7.7119e-01|  5.0000e-01|  5.0000e-01|  5.0000e-01|   -4.585289|   -4.655621|   -5.268174|   -5.037602|   -4.856314|   -7.658381|    2.475615|
|        9527|  6.7060e+00|  4.2474e-09|  7.7119e-01|  5.0000e-01|  5.0000e-01|  5.0000e-01|   -4.585477|   -4.655893|   -5.268354|   -5.037386|   -4.856487|   -7.658890|    2.475674|
|        9528|  6.7060e+00|  4.2473e-09|  7.7119e-01|  5.0000e-01|  5.0000e-01|  5.0000e-01|   -4.585666|   -4.656167|   -5.268537|   -5.037173|   -4.856662|   -7.659369|    2.475731|
|        9529|  6.7059e+00|  4.2472e-09|  7.7119e-01|  5.0000e-01|  5.0000e-01|  5.0000e-01|   -4.585856|   -4.656442|   -5.268720|   -5.036963|   -4.856837|   -7.659818|    2.475785|
|        9530|  6.7059e+00|  4.2470e-09|  7.7119e-01|  5.0000e-01|  5.0000e-01|  5.0000e-01|   -4.586046|   -4.656717|   -5.268904|   -5.036754|   -4.857013|   -7.660238|    2.475836|
|        9531|  6.7058e+00|  4.2469e-09|  7.7119e-01|  5.0000e-01|  5.0000e-01|  5.0000e-01|   -4.586237|   -4.656992|   -5.269090|   -5.036548|   -4.857190|   -7.660628|    2.475885|
|        9532|  6.7057e+00|  4.2468e-09|  7.7119e-01|  5.0000e-01|  5.0000e-01|  5.0000e-01|   -4.586431|   -4.657271|   -5.269278|   -5.036348|   -4.857370|   -7.660988|    2.475931|
|        9533|  6.7057e+00|  4.2467e-09|  7.7119e-01|  5.0000e-01|  5.0000e-01|  5.0000e-01|   -4.586626|   -4.657550|   -5.269466|   -5.036150|   -4.857551|   -7.661319|    2.475975|
|        9534|  6.7057e+00|  4.2466e-09|  7.7119e-01|  5.0000e-01|  5.0000e-01|  5.0000e-01|   -4.586822|   -4.657831|   -5.269656|   -5.035956|   -4.857734|   -7.661621|    2.476016|
|        9535|  6.7056e+00|  4.2464e-09|  7.7119e-01|  5.0000e-01|  5.0000e-01|  5.0000e-01|   -4.587019|   -4.658112|   -5.269849|   -5.035765|   -4.857917|   -7.661895|    2.476055|
|        9536|  6.7056e+00|  4.2463e-09|  7.7119e-01|  5.0000e-01|  5.0000e-01|  5.0000e-01|   -4.587216|   -4.658393|   -5.270042|   -5.035574|   -4.858102|   -7.662140|    2.476090|
|        9537|  6.7056e+00|  4.2462e-09|  7.7119e-01|  5.0000e-01|  5.0000e-01|  5.0000e-01|   -4.587413|   -4.658675|   -5.270235|   -5.035386|   -4.858286|   -7.662356|    2.476123|
|        9538|  6.7055e+00|  4.2461e-09|  7.7119e-01|  5.0000e-01|  5.0000e-01|  5.0000e-01|   -4.587611|   -4.658957|   -5.270429|   -5.035201|   -4.858471|   -7.662543|    2.476154|
|        9539|  6.7055e+00|  4.2459e-09|  7.7119e-01|  5.0000e-01|  5.0000e-01|  5.0000e-01|   -4.587810|   -4.659240|   -5.270623|   -5.035018|   -4.858657|   -7.662702|    2.476182|
|        9540|  6.7054e+00|  4.2458e-09|  7.7119e-01|  5.0000e-01|  5.0000e-01|  5.0000e-01|   -4.588009|   -4.659523|   -5.270818|   -5.034837|   -4.858844|   -7.662833|    2.476207|
|        9541|  6.7054e+00|  4.2457e-09|  7.7119e-01|  5.0000e-01|  5.0000e-01|  5.0000e-01|   -4.588208|   -4.659805|   -5.271012|   -5.034659|   -4.859031|   -7.662935|    2.476229|
|        9542|  6.7053e+00|  4.2455e-09|  7.7119e-01|  5.0000e-01|  5.0000e-01|  5.0000e-01|   -4.588409|   -4.660088|   -5.271207|   -5.034483|   -4.859218|   -7.663009|    2.476249|
|        9543|  6.7053e+00|  4.2454e-09|  7.7119e-01|  5.0000e-01|  5.0000e-01|  5.0000e-01|   -4.588611|   -4.660373|   -5.271404|   -5.034311|   -4.859408|   -7.663055|    2.476266|
|        9544|  6.7052e+00|  4.2453e-09|  7.7119e-01|  5.0000e-01|  5.0000e-01|  5.0000e-01|   -4.588815|   -4.660659|   -5.271600|   -5.034143|   -4.859599|   -7.663074|    2.476280|
|        9545|  6.7052e+00|  4.2451e-09|  7.7119e-01|  5.0000e-01|  5.0000e-01|  5.0000e-01|   -4.589021|   -4.660945|   -5.271798|   -5.033980|   -4.859792|   -7.663065|    2.476292|
|        9546|  6.7051e+00|  4.2450e-09|  7.7119e-01|  5.0000e-01|  5.0000e-01|  5.0000e-01|   -4.589228|   -4.661233|   -5.271995|   -5.033820|   -4.859986|   -7.663029|    2.476301|
|        9547|  6.7051e+00|  4.2449e-09|  7.7119e-01|  5.0000e-01|  5.0000e-01|  5.0000e-01|   -4.589439|   -4.661524|   -5.272194|   -5.033666|   -4.860184|   -7.662966|    2.476307|
|        9548|  6.7050e+00|  4.2447e-09|  7.7119e-01|  5.0000e-01|  5.0000e-01|  5.0000e-01|   -4.589651|   -4.661816|   -5.272394|   -5.033514|   -4.860383|   -7.662877|    2.476311|
|        9549|  6.7050e+00|  4.2446e-09|  7.7119e-01|  5.0000e-01|  5.0000e-01|  5.0000e-01|   -4.589863|   -4.662108|   -5.272594|   -5.033364|   -4.860583|   -7.662761|    2.476312|
|        9550|  6.7049e+00|  4.2445e-09|  7.7119e-01|  5.0000e-01|  5.0000e-01|  5.0000e-01|   -4.590077|   -4.662401|   -5.272794|   -5.033218|   -4.860783|   -7.662620|    2.476310|
|        9551|  6.7049e+00|  4.2443e-09|  7.7119e-01|  5.0000e-01|  5.0000e-01|  5.0000e-01|   -4.590291|   -4.662694|   -5.272994|   -5.033074|   -4.860984|   -7.662453|    2.476306|
|        9552|  6.7048e+00|  4.2442e-09|  7.7119e-01|  5.0000e-01|  5.0000e-01|  5.0000e-01|   -4.590507|   -4.662988|   -5.273195|   -5.032932|   -4.861186|   -7.662261|    2.476298|
|        9553|  6.7048e+00|  4.2440e-09|  7.7119e-01|  5.0000e-01|  5.0000e-01|  5.0000e-01|   -4.590722|   -4.663283|   -5.273395|   -5.032794|   -4.861388|   -7.662043|    2.476289|
|        9554|  6.7048e+00|  4.2439e-09|  7.7118e-01|  5.0000e-01|  5.0000e-01|  5.0000e-01|   -4.590938|   -4.663577|   -5.273594|   -5.032657|   -4.861590|   -7.661802|    2.476276|
|        9555|  6.7047e+00|  4.2438e-09|  7.7118e-01|  5.0000e-01|  5.0000e-01|  5.0000e-01|   -4.591155|   -4.663872|   -5.273794|   -5.032523|   -4.861793|   -7.661537|    2.476261|
|        9556|  6.7047e+00|  4.2436e-09|  7.7118e-01|  5.0000e-01|  5.0000e-01|  5.0000e-01|   -4.591372|   -4.664168|   -5.273994|   -5.032393|   -4.861997|   -7.661248|    2.476243|
|        9557|  6.7046e+00|  4.2435e-09|  7.7118e-01|  5.0000e-01|  5.0000e-01|  5.0000e-01|   -4.591592|   -4.664464|   -5.274195|   -5.032266|   -4.862202|   -7.660936|    2.476222|

scontrol show job 1138412
JobId=1138412 JobName=m6_aoa15
   UserId=anthonyy(3152141) GroupId=anthonyy(3152141) MCS_label=N/A
   Priority=693232 Nice=0 Account=rrg-jphickey QOS=normal
   JobState=COMPLETING Reason=TimeLimit Dependency=(null)
   Requeue=0 Restarts=0 BatchFlag=1 Reboot=0 ExitCode=0:15
   RunTime=18:00:09 TimeLimit=18:00:00 TimeMin=N/A
   SubmitTime=2026-03-07T17:47:12 EligibleTime=2026-03-07T17:47:12
   AccrueTime=2026-03-07T17:47:12
   StartTime=2026-03-07T17:47:13 EndTime=2026-03-08T12:47:22 Deadline=N/A
   SuspendTime=None SecsPreSuspend=0 LastSchedEval=2026-03-07T17:47:13 Scheduler=Main
   Partition=compute AllocNode:Sid=tri-login01:136366
   ReqNodeList=(null) ExcNodeList=(null)
   NodeList=tri[0278,1075]
   BatchHost=tri0278
   NumNodes=2 NumCPUs=384 NumTasks=128 CPUs/Task=1 ReqB:S:C:T=0:0:*:*
   ReqTRES=cpu=128,mem=1534000M,node=2,billing=128
   AllocTRES=cpu=384,mem=1534000M,node=2,billing=384
   Socks/Node=* NtasksPerN:B:S:C=64:0:*:* CoreSpec=*
   MinCPUsNode=64 MinMemoryNode=0 MinTmpDiskNode=0
   Features=(null) DelayBoot=00:00:00
   OverSubscribe=NO Contiguous=0 Licenses=(null) Network=(null)
   Command=/scratch/anthonyy/reentry/orion/cases/m6_aoa15/run.sh
   WorkDir=/scratch/anthonyy/reentry/orion/cases/m6_aoa15
   Comment=/opt/slurm/bin/sbatch --export=NONE --get-user-env=L run.sh 
   StdErr=/scratch/anthonyy/reentry/orion/cases/m6_aoa15/orion_1138412.err
   StdIn=/dev/null
   StdOut=/scratch/anthonyy/reentry/orion/cases/m6_aoa15/orion_1138412.out
   TresPerTask=cpu=1
   

sacct -j 1138412
JobID           JobName    Account    Elapsed  MaxVMSize     MaxRSS  SystemCPU    UserCPU ExitCode 
------------ ---------- ---------- ---------- ---------- ---------- ---------- ---------- -------- 
1138412        m6_aoa15 rrg-jphic+   18:00:09                        00:00.124  00:00.596      0:0 
1138412.bat+      batch rrg-jphic+   18:00:10          0     10528K  00:00.124  00:00.596     0:15 
1138412.ext+     extern rrg-jphic+   18:00:09                         00:00:00   00:00:00      0:0 
1138412.0       SU2_CFD rrg-jphic+   18:00:05                         00:00:00   00:00:00      0:0 

