Nodes: tri[0660,0857]
Tasks: 128
NPN:   64

-------------------------------------------------------------------------
|    ___ _   _ ___                                                      |
|   / __| | | |_  )   Release 7.5.1 "Blackbird"                         |
|   \__ \ |_| |/ /                                                      |
|   |___/\___//___|   Suite (Computational Fluid Dynamics Code)         |
|                                                                       |
-------------------------------------------------------------------------
| SU2 Project Website: https://su2code.github.io                        |
|                                                                       |
| The SU2 Project is maintained by the SU2 Foundation                   |
| (http://su2foundation.org)                                            |
-------------------------------------------------------------------------
| Copyright 2012-2023, SU2 Contributors                                 |
|                                                                       |
| SU2 is free software; you can redistribute it and/or                  |
| modify it under the terms of the GNU Lesser General Public            |
| License as published by the Free Software Foundation; either          |
| version 2.1 of the License, or (at your option) any later version.    |
|                                                                       |
| SU2 is distributed in the hope that it will be useful,                |
| but WITHOUT ANY WARRANTY; without even the implied warranty of        |
| MERCHANTABILITY or FITNESS FOR A PARTICULAR PURPOSE. See the GNU      |
| Lesser General Public License for more details.                       |
|                                                                       |
| You should have received a copy of the GNU Lesser General Public      |
| License along with SU2. If not, see <http://www.gnu.org/licenses/>.   |
-------------------------------------------------------------------------

Parsing config file for zone 0

----------------- Physical Case Definition ( Zone 0 ) -------------------
Compressible RANS equations.
Turbulence model: Spalart-Allmaras-noft2
Hybrid RANS/LES: No Hybrid RANS/LES
Mach number: 6.
Angle of attack (AoA): 15 deg, and angle of sideslip (AoS): 0 deg.
Reynolds number: 6.86229e+08. Reference length 5.
Reading and writing binary SU2 native restart files.
Read flow solution from: restart_flow.dat.
Non-Dimensional simulation (V=1.0, Rho=1.0, T=1.0 at the farfield).
The reference area will be computed using y(2D) or z(3D) projection.
The semi-span will be computed using the max y(3D) value.
The reference length is 0.64607 m.
Reference origin for moment evaluation is (0.25, 0, 0).
Surface(s) where the force coefficients are evaluated: ORION_SURFACE.

Input mesh file name: fine.su2

--------------- Space Numerical Integration ( Zone 0 ) ------------------
Jameson-Schmidt-Turkel scheme (2nd order in space) for the flow inviscid terms.
JST viscous coefficients (2nd & 4th): 0.5, 0.02.
The method includes a grid stretching correction (p = 0.3).
Scalar upwind solver for the turbulence model.
First order integration in space.
Average of gradients with correction (viscous flow terms).
Average of gradients with correction (viscous turbulence terms).
Gradient for upwind reconstruction: Green-Gauss.
Gradient for viscous and source terms: Green-Gauss.

--------------- Time Numerical Integration  ( Zone 0 ) ------------------
Local time stepping (steady state simulation).
Euler implicit method for the flow equations.
FGMRES is used for solving the linear system.
Using a ILU(0) preconditioning.
Convergence criteria of the linear solver: 1e-06.
Max number of linear iterations: 100.
CFL adaptation. Factor down: 0.5, factor up: 1.1,
                lower limit: 0.05, upper limit: 0.5,
                acceptable linear residual: 0.001.
Courant-Friedrichs-Lewy number:     0.03
Euler implicit time integration for the turbulence model.

------------------ Convergence Criteria  ( Zone 0 ) ---------------------
Maximum number of solver subiterations: 999999.
Begin convergence monitoring at iteration 5.
Residual minimum value: 1e-8.
Cauchy series min. value: 1e-10.
Number of Cauchy elements: 100.
Begin windowed time average at iteration 0.

-------------------- Output Information ( Zone 0 ) ----------------------
File writing frequency: 
+------------------------------------+
|                     File| Frequency|
+------------------------------------+
|                  RESTART|       150|
|                 PARAVIEW|       150|
|         SURFACE_PARAVIEW|       150|
+------------------------------------+
Writing the convergence history file every 1 inner iterations.
Writing the screen convergence history every 1 inner iterations.
The tabular file format is CSV (.csv).
Convergence history file name: history.
Forces breakdown file name: forces_breakdown.dat.
Surface file name: surface_flow.
Volume file name: flow.
Restart file name: restart_flow.

------------- Config File Boundary Information ( Zone 0 ) ---------------
+-----------------------------------------------------------------------+
|                        Marker Type|                        Marker Name|
+-----------------------------------------------------------------------+
|                          Far-field|                           FARFIELD|
+-----------------------------------------------------------------------+
|                     Heat flux wall|                      ORION_SURFACE|
+-----------------------------------------------------------------------+

-------------------- Output Preprocessing ( Zone 0 ) --------------------

WARNING: SURFACE_PRESSURE_DROP can only be computed for at least 2 surfaces (outlet, inlet, ...)

Screen output fields: INNER_ITER, WALL_TIME, MIN_DELTA_TIME, MAX_DELTA_TIME, MIN_CFL, MAX_CFL, AVG_CFL, RMS_DENSITY, RMS_MOMENTUM-X, RMS_MOMENTUM-Y, RMS_MOMENTUM-Z, RMS_ENERGY, RMS_NU_TILDE, DRAG
History output group(s): ITER, RMS_RES
Convergence field(s): RMS_DENSITY
Warning: No (valid) fields chosen for time convergence monitoring. Time convergence monitoring inactive.
Volume output fields: MACH, PRESSURE, TEMPERATURE, DENSITY, HEAT_FLUX, Y_PLUS, COORDINATES, SOLUTION

------------------- Geometry Preprocessing ( Zone 0 ) -------------------
Three dimensional problem.
62211324 grid points before partitioning.
190879888 volume elements before partitioning.
2 surface markers.
4104 boundary elements in index 0 (Marker = FARFIELD).
1824836 boundary elements in index 1 (Marker = ORION_SURFACE).
Executing the partitioning functions.
Building the graph adjacency structure.
Calling ParMETIS... graph partitioning complete (4959327 edge cuts).
Distributing ParMETIS coloring.
Rebalancing vertices.
Rebalancing volume element connectivity.
Rebalancing markers and surface elements.
66952290 vertices including ghost points. 
197997438 interior elements including halo cells. 
103171259 tetrahedra.
94500655 prisms.
325524 pyramids.
Establishing MPI communication patterns.
Setting point connectivity.
Renumbering points (Reverse Cuthill McKee Ordering).
Recomputing point connectivity.
Setting element connectivity.
Checking the numerical grid orientation.
All volume elements are correctly orientend.
All surface elements are correctly orientend.
Identifying edges and vertices.
Setting the control volume structure.
Volume of the computational grid: 535693.
Searching for the closest normal neighbors to the surfaces.
Storing a mapping from global to local point index.
Compute the surface curvature.
Max K: 132.896. Mean K: 3.9104. Standard deviation K: 7.49569.
Checking for periodicity.
Computing mesh quality statistics for the dual control volumes.
+--------------------------------------------------------------+
|           Mesh Quality Metric|        Minimum|        Maximum|
+--------------------------------------------------------------+
|    Orthogonality Angle (deg.)|        53.0661|             90|
|     CV Face Area Aspect Ratio|        1.01143|        75298.5|
|           CV Sub-Volume Ratio|        1.00029|        45.0258|
+--------------------------------------------------------------+
Finding max control volume width.
Communicating number of neighbors.
Reference area = 11.531 m^2.
Semi-span length = 2.49999 m.
Wetted area = 57.9072 m^2.
Area projection in the x-plane = 19.6343 m^2, y-plane = 11.531 m^2, z-plane = 11.531 m^2.
Max. coordinate in the x-direction = 2.575 m, y-direction = 2.49999 m, z-direction = 2.49999 m.
Min. coordinate in the x-direction = -0.71 m, y-direction = -2.49999 m, z-direction = -2.5 m.
Computing wall distances.

-------------------- Solver Preprocessing ( Zone 0 ) --------------------
Viscous flow: Computing pressure using the ideal gas law
based on the free-stream temperature and a density computed
from the Reynolds number.
Force coefficients computed using free-stream values.

-- Models:
+------------------------------------------------------------------------------+
|          Viscosity Model|        Conductivity Model|              Fluid Model|
+------------------------------------------------------------------------------+
|               SUTHERLAND|          CONSTANT_PRANDTL|             STANDARD_AIR|
+------------------------------------------------------------------------------+
-- Fluid properties:
+------------------------------------------------------------------------------+
|                  Name|    Dim. value|    Ref. value|      Unit|Non-dim. value|
+------------------------------------------------------------------------------+
|        Ref. Viscosity|     1.716e-05|       2455.73|   N.s/m^2|   6.98773e-09|
|      Sutherland Temp.|        273.15|        288.15|         K|      0.947944|
|     Sutherland Const.|         110.4|        288.15|         K|      0.383134|
+------------------------------------------------------------------------------+
|        Prandtl (Lam.)|             -|             -|         -|          0.72|
|       Prandtl (Turb.)|             -|             -|         -|           0.9|
+------------------------------------------------------------------------------+
|          Gas Constant|       287.058|       14467.7|  N.m/kg.K|     0.0198413|
|      Spec. Heat Ratio|             -|             -|         -|           1.4|
+------------------------------------------------------------------------------+
-- Initial and free-stream conditions:
+------------------------------------------------------------------------------+
|                  Name|    Dim. value|    Ref. value|      Unit|Non-dim. value|
+------------------------------------------------------------------------------+
|       Static Pressure|       99485.6|   5.01407e+06|        Pa|     0.0198413|
|               Density|       1.20274|       1.20274|    kg/m^3|             1|
|           Temperature|        288.15|        288.15|         K|             1|
|          Total Energy|   2.29123e+06|   4.16887e+06|   m^2/s^2|      0.549603|
|            Velocity-X|       1972.21|       2041.78|       m/s|      0.965926|
|            Velocity-Y|             0|       2041.78|       m/s|             0|
|            Velocity-Z|       528.452|       2041.78|       m/s|      0.258819|
|    Velocity Magnitude|       2041.78|       2041.78|       m/s|             1|
+------------------------------------------------------------------------------+
|             Viscosity|    1.7893e-05|       2455.73|   N.s/m^2|    7.2862e-09|
|          Conductivity|             -|   3.55289e+07|   W/m^2.K|             -|
|     Turb. Kin. Energy|       15633.3|   4.16887e+06|   m^2/s^2|       0.00375|
|     Spec. Dissipation|   1.05085e+08|       2041.78|       1/s|       51467.1|
+------------------------------------------------------------------------------+
|           Mach Number|             -|             -|         -|             6|
|       Reynolds Number|             -|             -|         -|   6.86229e+08|
+------------------------------------------------------------------------------+
Initialize Jacobian structure (Navier-Stokes). MG level: 0.
Initialize Jacobian structure (SA model).

------------------- Numerics Preprocessing ( Zone 0 ) -------------------

----------------- Integration Preprocessing ( Zone 0 ) ------------------

------------------- Iteration Preprocessing ( Zone 0 ) ------------------
Euler/Navier-Stokes/RANS fluid iteration.

------------------------------ Begin Solver -----------------------------

Simulation Run using the Single-zone Driver
WARNING: SU2 was not compiled for an AVX-capable architecture. Performance could be better,
         see https://su2code.github.io/docs_v7/Build-SU2-Linux-MacOS/#compiler-optimizations
+-------------------------------------------------------------------------------------------------------------------------------------------------------------------------------------+
|  Inner_Iter|   Time(sec)|      Min DT|      Max DT|     Min CFL|     Max CFL|     Avg CFL|    rms[Rho]|   rms[RhoU]|   rms[RhoV]|   rms[RhoW]|   rms[RhoE]|     rms[nu]|          CD|
+-------------------------------------------------------------------------------------------------------------------------------------------------------------------------------------+
|           0|  7.1951e+00|  3.3641e-10|  4.6273e-02|  5.0000e-02|  5.0000e-02|  5.0000e-02|   -4.982287|   -5.056530|   -5.698030|   -5.498234|   -5.267732|   -7.617305|    2.381604|
|           1|  5.9156e+00|  5.6069e-10|  7.7122e-02|  5.5000e-02|  5.5000e-02|  5.5000e-02|   -4.982282|   -5.056515|   -5.698067|   -5.498268|   -5.267757|   -7.617258|    2.381617|
|           2|  5.4742e+00|  6.1676e-10|  8.4835e-02|  6.0500e-02|  6.0500e-02|  6.0500e-02|   -4.982271|   -5.056488|   -5.698123|   -5.498319|   -5.267794|   -7.617259|    2.381631|
|           3|  5.2436e+00|  6.7843e-10|  9.3318e-02|  6.6550e-02|  6.6550e-02|  6.6550e-02|   -4.982258|   -5.056458|   -5.698184|   -5.498375|   -5.267834|   -7.617260|    2.381647|
|           4|  5.1499e+00|  7.4627e-10|  1.0265e-01|  7.3205e-02|  7.3205e-02|  7.3205e-02|   -4.982243|   -5.056424|   -5.698247|   -5.498434|   -5.267875|   -7.617261|    2.381665|
|           5|  5.0782e+00|  8.2090e-10|  1.1291e-01|  8.0526e-02|  8.0526e-02|  8.0526e-02|   -4.982225|   -5.056385|   -5.698314|   -5.498497|   -5.267918|   -7.617263|    2.381684|
|           6|  5.0129e+00|  9.0299e-10|  1.2421e-01|  8.8578e-02|  8.8578e-02|  8.8578e-02|   -4.982203|   -5.056342|   -5.698385|   -5.498564|   -5.267962|   -7.617265|    2.381706|
|           7|  4.9681e+00|  9.9328e-10|  1.3663e-01|  9.7436e-02|  9.7436e-02|  9.7436e-02|   -4.982177|   -5.056293|   -5.698458|   -5.498634|   -5.268008|   -7.617267|    2.381729|
|           8|  4.9190e+00|  1.0926e-09|  1.5029e-01|  1.0718e-01|  1.0718e-01|  1.0718e-01|   -4.982147|   -5.056238|   -5.698534|   -5.498708|   -5.268054|   -7.617269|    2.381755|
|           9|  4.8819e+00|  1.2019e-09|  1.6532e-01|  1.1790e-01|  1.1790e-01|  1.1790e-01|   -4.982111|   -5.056176|   -5.698611|   -5.498786|   -5.268101|   -7.617271|    2.381783|
|          10|  4.8552e+00|  1.3220e-09|  1.8185e-01|  1.2969e-01|  1.2969e-01|  1.2969e-01|   -4.982068|   -5.056105|   -5.698690|   -5.498866|   -5.268146|   -7.617273|    2.381814|
|          11|  4.8629e+00|  1.4542e-09|  2.0004e-01|  1.4266e-01|  1.4266e-01|  1.4266e-01|   -4.982017|   -5.056025|   -5.698768|   -5.498949|   -5.268190|   -7.617276|    2.381848|
|          12|  4.8737e+00|  1.5997e-09|  2.2004e-01|  1.5692e-01|  1.5692e-01|  1.5692e-01|   -4.981956|   -5.055933|   -5.698845|   -5.499033|   -5.268230|   -7.617279|    2.381885|
|          13|  4.8789e+00|  1.7596e-09|  2.4204e-01|  1.7261e-01|  1.7261e-01|  1.7261e-01|   -4.981884|   -5.055829|   -5.698919|   -5.499117|   -5.268265|   -7.617283|    2.381926|
|          14|  4.8910e+00|  1.9356e-09|  2.6625e-01|  1.8987e-01|  1.8987e-01|  1.8987e-01|   -4.981799|   -5.055709|   -5.698987|   -5.499200|   -5.268293|   -7.617287|    2.381971|
|          15|  4.9036e+00|  2.1291e-09|  2.9287e-01|  2.0886e-01|  2.0886e-01|  2.0886e-01|   -4.981697|   -5.055571|   -5.699048|   -5.499281|   -5.268311|   -7.617292|    2.382020|
|          16|  4.9096e+00|  2.3420e-09|  3.2216e-01|  2.2975e-01|  2.2975e-01|  2.2975e-01|   -4.981577|   -5.055414|   -5.699098|   -5.499356|   -5.268316|   -7.617297|    2.382074|
|          17|  4.9158e+00|  2.5762e-09|  3.5438e-01|  2.5272e-01|  2.5272e-01|  2.5272e-01|   -4.981435|   -5.055232|   -5.699133|   -5.499425|   -5.268304|   -7.617302|    2.382133|
|          18|  4.9233e+00|  2.8338e-09|  3.8981e-01|  2.7800e-01|  2.7800e-01|  2.7800e-01|   -4.981266|   -5.055023|   -5.699150|   -5.499482|   -5.268270|   -7.617309|    2.382197|
|          19|  4.9293e+00|  3.1171e-09|  4.2879e-01|  3.0580e-01|  3.0580e-01|  3.0580e-01|   -4.981065|   -5.054780|   -5.699142|   -5.499524|   -5.268208|   -7.617316|    2.382268|
|          20|  4.9327e+00|  3.4288e-09|  4.7167e-01|  3.3637e-01|  3.3637e-01|  3.3637e-01|   -4.980827|   -5.054498|   -5.699104|   -5.499546|   -5.268110|   -7.617324|    2.382345|
|          21|  4.9589e+00|  3.7717e-09|  5.1884e-01|  3.7001e-01|  3.7001e-01|  3.7001e-01|   -4.980545|   -5.054170|   -5.699029|   -5.499543|   -5.267967|   -7.617334|    2.382430|
|          22|  4.9806e+00|  4.1488e-09|  5.7073e-01|  4.0701e-01|  4.0701e-01|  4.0701e-01|   -4.980209|   -5.053786|   -5.698908|   -5.499507|   -5.267768|   -7.617344|    2.382522|
|          23|  4.9995e+00|  4.5636e-09|  6.2780e-01|  4.4772e-01|  4.4772e-01|  4.4772e-01|   -4.979808|   -5.053336|   -5.698732|   -5.499429|   -5.267499|   -7.617356|    2.382623|
|          24|  5.0171e+00|  5.0199e-09|  6.9058e-01|  4.9249e-01|  4.9249e-01|  4.9249e-01|   -4.979332|   -5.052807|   -5.698489|   -5.499300|   -5.267144|   -7.617370|    2.382733|
|          25|  5.0347e+00|  5.5218e-09|  7.5964e-01|  5.0000e-01|  5.0000e-01|  5.0000e-01|   -4.978766|   -5.052183|   -5.698169|   -5.499108|   -5.266683|   -7.617385|    2.382853|
|          26|  5.0537e+00|  5.6059e-09|  7.7122e-01|  5.0000e-01|  5.0000e-01|  5.0000e-01|   -4.978091|   -5.051447|   -5.697756|   -5.498838|   -5.266092|   -7.617523|    2.382973|
|          27|  5.0705e+00|  5.6058e-09|  7.7122e-01|  5.0000e-01|  5.0000e-01|  5.0000e-01|   -4.977390|   -5.050679|   -5.697335|   -5.498551|   -5.265466|   -7.617685|    2.383093|
|          28|  5.0842e+00|  5.6057e-09|  7.7122e-01|  5.0000e-01|  5.0000e-01|  5.0000e-01|   -4.976679|   -5.049898|   -5.696923|   -5.498259|   -5.264825|   -7.617847|    2.383211|
|          29|  5.0987e+00|  5.6056e-09|  7.7122e-01|  5.0000e-01|  5.0000e-01|  5.0000e-01|   -4.975959|   -5.049103|   -5.696519|   -5.497962|   -5.264170|   -7.618009|    2.383328|
|          30|  5.1105e+00|  5.6055e-09|  7.7122e-01|  5.0000e-01|  5.0000e-01|  5.0000e-01|   -4.975230|   -5.048295|   -5.696124|   -5.497661|   -5.263502|   -7.618170|    2.383444|
|          31|  5.1207e+00|  5.6054e-09|  7.7122e-01|  5.0000e-01|  5.0000e-01|  5.0000e-01|   -4.974492|   -5.047475|   -5.695736|   -5.497356|   -5.262820|   -7.618331|    2.383559|
|          32|  5.1304e+00|  5.6053e-09|  7.7122e-01|  5.0000e-01|  5.0000e-01|  5.0000e-01|   -4.973745|   -5.046644|   -5.695354|   -5.497046|   -5.262127|   -7.618491|    2.383672|
|          33|  5.1394e+00|  5.6052e-09|  7.7122e-01|  5.0000e-01|  5.0000e-01|  5.0000e-01|   -4.972991|   -5.045802|   -5.694980|   -5.496733|   -5.261422|   -7.618650|    2.383784|
|          34|  5.1483e+00|  5.6051e-09|  7.7122e-01|  5.0000e-01|  5.0000e-01|  5.0000e-01|   -4.972230|   -5.044950|   -5.694614|   -5.496415|   -5.260706|   -7.618809|    2.383896|
|          35|  5.1568e+00|  5.6050e-09|  7.7122e-01|  5.0000e-01|  5.0000e-01|  5.0000e-01|   -4.971462|   -5.044090|   -5.694253|   -5.496093|   -5.259981|   -7.618967|    2.384005|
|          36|  5.1651e+00|  5.6049e-09|  7.7122e-01|  5.0000e-01|  5.0000e-01|  5.0000e-01|   -4.970687|   -5.043221|   -5.693898|   -5.495769|   -5.259248|   -7.619124|    2.384114|
|          37|  5.1726e+00|  5.6048e-09|  7.7122e-01|  5.0000e-01|  5.0000e-01|  5.0000e-01|   -4.969907|   -5.042344|   -5.693549|   -5.495440|   -5.258507|   -7.619280|    2.384222|
|          38|  5.1791e+00|  5.6047e-09|  7.7122e-01|  5.0000e-01|  5.0000e-01|  5.0000e-01|   -4.969122|   -5.041462|   -5.693205|   -5.495107|   -5.257758|   -7.619436|    2.384328|
|          39|  5.1858e+00|  5.6046e-09|  7.7122e-01|  5.0000e-01|  5.0000e-01|  5.0000e-01|   -4.968332|   -5.040574|   -5.692866|   -5.494772|   -5.257004|   -7.619590|    2.384434|
|          40|  5.1927e+00|  5.6045e-09|  7.7122e-01|  5.0000e-01|  5.0000e-01|  5.0000e-01|   -4.967540|   -5.039681|   -5.692533|   -5.494436|   -5.256246|   -7.619744|    2.384538|
|          41|  5.1979e+00|  5.6044e-09|  7.7122e-01|  5.0000e-01|  5.0000e-01|  5.0000e-01|   -4.966744|   -5.038785|   -5.692204|   -5.494097|   -5.255484|   -7.619896|    2.384641|
|          42|  5.2033e+00|  5.6043e-09|  7.7122e-01|  5.0000e-01|  5.0000e-01|  5.0000e-01|   -4.965946|   -5.037886|   -5.691879|   -5.493754|   -5.254718|   -7.620047|    2.384743|
|          43|  5.2073e+00|  5.6042e-09|  7.7122e-01|  5.0000e-01|  5.0000e-01|  5.0000e-01|   -4.965146|   -5.036985|   -5.691559|   -5.493409|   -5.253951|   -7.620197|    2.384843|
|          44|  5.2129e+00|  5.6041e-09|  7.7122e-01|  5.0000e-01|  5.0000e-01|  5.0000e-01|   -4.964345|   -5.036081|   -5.691242|   -5.493062|   -5.253181|   -7.620346|    2.384943|
|          45|  5.2180e+00|  5.6040e-09|  7.7122e-01|  5.0000e-01|  5.0000e-01|  5.0000e-01|   -4.963542|   -5.035176|   -5.690929|   -5.492712|   -5.252410|   -7.620493|    2.385041|
|          46|  5.2229e+00|  5.6039e-09|  7.7122e-01|  5.0000e-01|  5.0000e-01|  5.0000e-01|   -4.962739|   -5.034271|   -5.690619|   -5.492360|   -5.251639|   -7.620639|    2.385139|
|          47|  5.2281e+00|  5.6038e-09|  7.7122e-01|  5.0000e-01|  5.0000e-01|  5.0000e-01|   -4.961937|   -5.033366|   -5.690313|   -5.492006|   -5.250868|   -7.620783|    2.385235|
|          48|  5.2325e+00|  5.6037e-09|  7.7122e-01|  5.0000e-01|  5.0000e-01|  5.0000e-01|   -4.961135|   -5.032461|   -5.690010|   -5.491651|   -5.250098|   -7.620925|    2.385330|
|          49|  5.2404e+00|  5.6036e-09|  7.7122e-01|  5.0000e-01|  5.0000e-01|  5.0000e-01|   -4.960334|   -5.031558|   -5.689710|   -5.491294|   -5.249330|   -7.621066|    2.385425|
|          50|  5.2516e+00|  5.6035e-09|  7.7122e-01|  5.0000e-01|  5.0000e-01|  5.0000e-01|   -4.959534|   -5.030656|   -5.689413|   -5.490934|   -5.248563|   -7.621205|    2.385518|
|          51|  5.2615e+00|  5.6034e-09|  7.7122e-01|  5.0000e-01|  5.0000e-01|  5.0000e-01|   -4.958736|   -5.029755|   -5.689118|   -5.490572|   -5.247798|   -7.621343|    2.385610|
|          52|  5.2676e+00|  5.6033e-09|  7.7122e-01|  5.0000e-01|  5.0000e-01|  5.0000e-01|   -4.957939|   -5.028857|   -5.688825|   -5.490209|   -5.247036|   -7.621479|    2.385701|
|          53|  5.2725e+00|  5.6032e-09|  7.7122e-01|  5.0000e-01|  5.0000e-01|  5.0000e-01|   -4.957145|   -5.027961|   -5.688535|   -5.489842|   -5.246276|   -7.621613|    2.385791|
|          54|  5.2765e+00|  5.6030e-09|  7.7122e-01|  5.0000e-01|  5.0000e-01|  5.0000e-01|   -4.956352|   -5.027068|   -5.688245|   -5.489473|   -5.245519|   -7.621745|    2.385880|
|          55|  5.2810e+00|  5.6029e-09|  7.7122e-01|  5.0000e-01|  5.0000e-01|  5.0000e-01|   -4.955561|   -5.026177|   -5.687956|   -5.489101|   -5.244763|   -7.621876|    2.385968|
|          56|  5.2838e+00|  5.6028e-09|  7.7122e-01|  5.0000e-01|  5.0000e-01|  5.0000e-01|   -4.954773|   -5.025290|   -5.687669|   -5.488727|   -5.244011|   -7.622005|    2.386054|
|          57|  5.2879e+00|  5.6027e-09|  7.7122e-01|  5.0000e-01|  5.0000e-01|  5.0000e-01|   -4.953987|   -5.024405|   -5.687383|   -5.488351|   -5.243263|   -7.622131|    2.386140|
|          58|  5.2925e+00|  5.6026e-09|  7.7122e-01|  5.0000e-01|  5.0000e-01|  5.0000e-01|   -4.953203|   -5.023524|   -5.687099|   -5.487973|   -5.242517|   -7.622256|    2.386225|
|          59|  5.2957e+00|  5.6025e-09|  7.7122e-01|  5.0000e-01|  5.0000e-01|  5.0000e-01|   -4.952423|   -5.022646|   -5.686817|   -5.487593|   -5.241776|   -7.622378|    2.386309|
|          60|  5.2973e+00|  5.6024e-09|  7.7122e-01|  5.0000e-01|  5.0000e-01|  5.0000e-01|   -4.951646|   -5.021771|   -5.686536|   -5.487210|   -5.241037|   -7.622499|    2.386392|
|          61|  5.3002e+00|  5.6023e-09|  7.7122e-01|  5.0000e-01|  5.0000e-01|  5.0000e-01|   -4.950871|   -5.020900|   -5.686257|   -5.486825|   -5.240302|   -7.622617|    2.386474|
|          62|  5.3024e+00|  5.6022e-09|  7.7122e-01|  5.0000e-01|  5.0000e-01|  5.0000e-01|   -4.950100|   -5.020032|   -5.685979|   -5.486439|   -5.239570|   -7.622733|    2.386554|
|          63|  5.3051e+00|  5.6021e-09|  7.7122e-01|  5.0000e-01|  5.0000e-01|  5.0000e-01|   -4.949332|   -5.019168|   -5.685701|   -5.486049|   -5.238843|   -7.622846|    2.386634|
|          64|  5.3076e+00|  5.6019e-09|  7.7122e-01|  5.0000e-01|  5.0000e-01|  5.0000e-01|   -4.948566|   -5.018307|   -5.685425|   -5.485657|   -5.238118|   -7.622958|    2.386713|
|          65|  5.3099e+00|  5.6018e-09|  7.7122e-01|  5.0000e-01|  5.0000e-01|  5.0000e-01|   -4.947804|   -5.017450|   -5.685149|   -5.485263|   -5.237396|   -7.623067|    2.386791|
|          66|  5.3120e+00|  5.6017e-09|  7.7122e-01|  5.0000e-01|  5.0000e-01|  5.0000e-01|   -4.947044|   -5.016596|   -5.684873|   -5.484865|   -5.236678|   -7.623174|    2.386867|
|          67|  5.3130e+00|  5.6016e-09|  7.7122e-01|  5.0000e-01|  5.0000e-01|  5.0000e-01|   -4.946288|   -5.015746|   -5.684598|   -5.484465|   -5.235963|   -7.623278|    2.386943|
|          68|  5.3150e+00|  5.6015e-09|  7.7122e-01|  5.0000e-01|  5.0000e-01|  5.0000e-01|   -4.945535|   -5.014899|   -5.684323|   -5.484063|   -5.235252|   -7.623380|    2.387018|
|          69|  5.3169e+00|  5.6014e-09|  7.7122e-01|  5.0000e-01|  5.0000e-01|  5.0000e-01|   -4.944786|   -5.014056|   -5.684050|   -5.483659|   -5.234544|   -7.623480|    2.387092|
|          70|  5.3192e+00|  5.6013e-09|  7.7122e-01|  5.0000e-01|  5.0000e-01|  5.0000e-01|   -4.944039|   -5.013217|   -5.683778|   -5.483252|   -5.233839|   -7.623577|    2.387164|
|          71|  5.3259e+00|  5.6012e-09|  7.7122e-01|  5.0000e-01|  5.0000e-01|  5.0000e-01|   -4.943296|   -5.012381|   -5.683507|   -5.482843|   -5.233137|   -7.623672|    2.387236|
|          72|  5.3304e+00|  5.6010e-09|  7.7122e-01|  5.0000e-01|  5.0000e-01|  5.0000e-01|   -4.942558|   -5.011550|   -5.683236|   -5.482431|   -5.232439|   -7.623765|    2.387307|
|          73|  5.3329e+00|  5.6009e-09|  7.7122e-01|  5.0000e-01|  5.0000e-01|  5.0000e-01|   -4.941825|   -5.010727|   -5.682968|   -5.482018|   -5.231748|   -7.623855|    2.387377|
|          74|  5.3350e+00|  5.6008e-09|  7.7122e-01|  5.0000e-01|  5.0000e-01|  5.0000e-01|   -4.941095|   -5.009906|   -5.682701|   -5.481603|   -5.231060|   -7.623942|    2.387445|
|          75|  5.3366e+00|  5.6007e-09|  7.7122e-01|  5.0000e-01|  5.0000e-01|  5.0000e-01|   -4.940368|   -5.009089|   -5.682435|   -5.481185|   -5.230373|   -7.624027|    2.387513|
|          76|  5.3392e+00|  5.6006e-09|  7.7122e-01|  5.0000e-01|  5.0000e-01|  5.0000e-01|   -4.939644|   -5.008274|   -5.682170|   -5.480766|   -5.229689|   -7.624110|    2.387580|
|          77|  5.3409e+00|  5.6005e-09|  7.7122e-01|  5.0000e-01|  5.0000e-01|  5.0000e-01|   -4.938922|   -5.007462|   -5.681906|   -5.480345|   -5.229006|   -7.624190|    2.387645|
|          78|  5.3429e+00|  5.6004e-09|  7.7122e-01|  5.0000e-01|  5.0000e-01|  5.0000e-01|   -4.938202|   -5.006653|   -5.681642|   -5.479921|   -5.228326|   -7.624267|    2.387710|
|          79|  5.3450e+00|  5.6002e-09|  7.7122e-01|  5.0000e-01|  5.0000e-01|  5.0000e-01|   -4.937485|   -5.005846|   -5.681379|   -5.479495|   -5.227646|   -7.624342|    2.387774|
|          80|  5.3468e+00|  5.6001e-09|  7.7122e-01|  5.0000e-01|  5.0000e-01|  5.0000e-01|   -4.936770|   -5.005042|   -5.681118|   -5.479068|   -5.226969|   -7.624414|    2.387836|
|          81|  5.3483e+00|  5.6000e-09|  7.7122e-01|  5.0000e-01|  5.0000e-01|  5.0000e-01|   -4.936063|   -5.004247|   -5.680860|   -5.478638|   -5.226300|   -7.624484|    2.387898|
|          82|  5.3506e+00|  5.5999e-09|  7.7122e-01|  5.0000e-01|  5.0000e-01|  5.0000e-01|   -4.935358|   -5.003455|   -5.680602|   -5.478207|   -5.225633|   -7.624551|    2.387958|
|          83|  5.3524e+00|  5.5998e-09|  7.7122e-01|  5.0000e-01|  5.0000e-01|  5.0000e-01|   -4.934656|   -5.002664|   -5.680345|   -5.477774|   -5.224967|   -7.624615|    2.388018|
|          84|  5.3535e+00|  5.5996e-09|  7.7122e-01|  5.0000e-01|  5.0000e-01|  5.0000e-01|   -4.933954|   -5.001875|   -5.680088|   -5.477338|   -5.224301|   -7.624677|    2.388076|
|          85|  5.3549e+00|  5.5995e-09|  7.7122e-01|  5.0000e-01|  5.0000e-01|  5.0000e-01|   -4.933254|   -5.001087|   -5.679832|   -5.476900|   -5.223635|   -7.624736|    2.388134|
|          86|  5.3565e+00|  5.5994e-09|  7.7122e-01|  5.0000e-01|  5.0000e-01|  5.0000e-01|   -4.932555|   -5.000300|   -5.679577|   -5.476460|   -5.222969|   -7.624792|    2.388190|
|          87|  5.3579e+00|  5.5993e-09|  7.7122e-01|  5.0000e-01|  5.0000e-01|  5.0000e-01|   -4.931858|   -4.999515|   -5.679323|   -5.476018|   -5.222303|   -7.624845|    2.388245|
|          88|  5.3598e+00|  5.5992e-09|  7.7122e-01|  5.0000e-01|  5.0000e-01|  5.0000e-01|   -4.931162|   -4.998732|   -5.679069|   -5.475574|   -5.221637|   -7.624896|    2.388300|
|          89|  5.3615e+00|  5.5990e-09|  7.7122e-01|  5.0000e-01|  5.0000e-01|  5.0000e-01|   -4.930466|   -4.997948|   -5.678815|   -5.475129|   -5.220971|   -7.624945|    2.388353|
|          90|  5.3640e+00|  5.5989e-09|  7.7122e-01|  5.0000e-01|  5.0000e-01|  5.0000e-01|   -4.929773|   -4.997168|   -5.678566|   -5.474685|   -5.220307|   -7.624991|    2.388405|
|          91|  5.3661e+00|  5.5988e-09|  7.7122e-01|  5.0000e-01|  5.0000e-01|  5.0000e-01|   -4.929082|   -4.996389|   -5.678317|   -5.474238|   -5.219643|   -7.625034|    2.388456|
|          92|  5.3677e+00|  5.5987e-09|  7.7122e-01|  5.0000e-01|  5.0000e-01|  5.0000e-01|   -4.928390|   -4.995612|   -5.678068|   -5.473789|   -5.218978|   -7.625074|    2.388506|
|          93|  5.3700e+00|  5.5986e-09|  7.7122e-01|  5.0000e-01|  5.0000e-01|  5.0000e-01|   -4.927701|   -4.994836|   -5.677820|   -5.473339|   -5.218314|   -7.625112|    2.388554|
|          94|  5.3709e+00|  5.5984e-09|  7.7122e-01|  5.0000e-01|  5.0000e-01|  5.0000e-01|   -4.927012|   -4.994062|   -5.677574|   -5.472886|   -5.217649|   -7.625147|    2.388602|
|          95|  5.3723e+00|  5.5983e-09|  7.7122e-01|  5.0000e-01|  5.0000e-01|  5.0000e-01|   -4.926324|   -4.993290|   -5.677327|   -5.472432|   -5.216984|   -7.625180|    2.388649|
|          96|  5.3738e+00|  5.5982e-09|  7.7122e-01|  5.0000e-01|  5.0000e-01|  5.0000e-01|   -4.925637|   -4.992518|   -5.677082|   -5.471976|   -5.216319|   -7.625210|    2.388694|
|          97|  5.3750e+00|  5.5981e-09|  7.7122e-01|  5.0000e-01|  5.0000e-01|  5.0000e-01|   -4.924951|   -4.991748|   -5.676838|   -5.471517|   -5.215654|   -7.625238|    2.388738|
|          98|  5.3756e+00|  5.5979e-09|  7.7122e-01|  5.0000e-01|  5.0000e-01|  5.0000e-01|   -4.924267|   -4.990979|   -5.676593|   -5.471056|   -5.214988|   -7.625262|    2.388782|
|          99|  5.3768e+00|  5.5978e-09|  7.7122e-01|  5.0000e-01|  5.0000e-01|  5.0000e-01|   -4.923584|   -4.990214|   -5.676350|   -5.470593|   -5.214324|   -7.625284|    2.388824|
|         100|  5.3781e+00|  5.5977e-09|  7.7122e-01|  5.0000e-01|  5.0000e-01|  5.0000e-01|   -4.922906|   -4.989454|   -5.676109|   -5.470129|   -5.213665|   -7.625303|    2.388865|
|         101|  5.3787e+00|  5.5976e-09|  7.7122e-01|  5.0000e-01|  5.0000e-01|  5.0000e-01|   -4.922228|   -4.988694|   -5.675868|   -5.469664|   -5.213004|   -7.625320|    2.388905|
|         102|  5.3797e+00|  5.5974e-09|  7.7122e-01|  5.0000e-01|  5.0000e-01|  5.0000e-01|   -4.921552|   -4.987936|   -5.675629|   -5.469197|   -5.212344|   -7.625334|    2.388943|
|         103|  5.3808e+00|  5.5973e-09|  7.7122e-01|  5.0000e-01|  5.0000e-01|  5.0000e-01|   -4.920878|   -4.987179|   -5.675390|   -5.468729|   -5.211684|   -7.625345|    2.388981|
|         104|  5.3815e+00|  5.5972e-09|  7.7122e-01|  5.0000e-01|  5.0000e-01|  5.0000e-01|   -4.920204|   -4.986424|   -5.675153|   -5.468260|   -5.211024|   -7.625354|    2.389017|
|         105|  5.3826e+00|  5.5971e-09|  7.7122e-01|  5.0000e-01|  5.0000e-01|  5.0000e-01|   -4.919531|   -4.985669|   -5.674918|   -5.467789|   -5.210364|   -7.625360|    2.389052|
|         106|  5.3838e+00|  5.5969e-09|  7.7122e-01|  5.0000e-01|  5.0000e-01|  5.0000e-01|   -4.918860|   -4.984916|   -5.674684|   -5.467317|   -5.209704|   -7.625364|    2.389086|
|         107|  5.3850e+00|  5.5968e-09|  7.7122e-01|  5.0000e-01|  5.0000e-01|  5.0000e-01|   -4.918192|   -4.984165|   -5.674452|   -5.466844|   -5.209046|   -7.625365|    2.389119|
|         108|  5.3860e+00|  5.5967e-09|  7.7122e-01|  5.0000e-01|  5.0000e-01|  5.0000e-01|   -4.917526|   -4.983418|   -5.674222|   -5.466372|   -5.208390|   -7.625363|    2.389151|
|         109|  5.3870e+00|  5.5966e-09|  7.7122e-01|  5.0000e-01|  5.0000e-01|  5.0000e-01|   -4.916862|   -4.982673|   -5.673993|   -5.465898|   -5.207734|   -7.625359|    2.389181|
|         110|  5.3878e+00|  5.5964e-09|  7.7122e-01|  5.0000e-01|  5.0000e-01|  5.0000e-01|   -4.916200|   -4.981929|   -5.673766|   -5.465424|   -5.207080|   -7.625353|    2.389211|
|         111|  5.3883e+00|  5.5963e-09|  7.7122e-01|  5.0000e-01|  5.0000e-01|  5.0000e-01|   -4.915539|   -4.981186|   -5.673539|   -5.464948|   -5.206425|   -7.625344|    2.389239|
|         112|  5.3891e+00|  5.5962e-09|  7.7122e-01|  5.0000e-01|  5.0000e-01|  5.0000e-01|   -4.914882|   -4.980449|   -5.673315|   -5.464472|   -5.205775|   -7.625333|    2.389266|
|         113|  5.3897e+00|  5.5960e-09|  7.7122e-01|  5.0000e-01|  5.0000e-01|  5.0000e-01|   -4.914228|   -4.979714|   -5.673092|   -5.463995|   -5.205126|   -7.625320|    2.389292|
|         114|  5.3910e+00|  5.5959e-09|  7.7122e-01|  5.0000e-01|  5.0000e-01|  5.0000e-01|   -4.913575|   -4.978981|   -5.672870|   -5.463517|   -5.204477|   -7.625304|    2.389316|
|         115|  5.3919e+00|  5.5958e-09|  7.7122e-01|  5.0000e-01|  5.0000e-01|  5.0000e-01|   -4.912924|   -4.978248|   -5.672649|   -5.463038|   -5.203828|   -7.625286|    2.389339|
|         116|  5.3935e+00|  5.5956e-09|  7.7122e-01|  5.0000e-01|  5.0000e-01|  5.0000e-01|   -4.912273|   -4.977517|   -5.672430|   -5.462557|   -5.203179|   -7.625266|    2.389362|
|         117|  5.3949e+00|  5.5955e-09|  7.7122e-01|  5.0000e-01|  5.0000e-01|  5.0000e-01|   -4.911624|   -4.976787|   -5.672211|   -5.462075|   -5.202530|   -7.625243|    2.389383|
|         118|  5.3958e+00|  5.5954e-09|  7.7122e-01|  5.0000e-01|  5.0000e-01|  5.0000e-01|   -4.910977|   -4.976059|   -5.671994|   -5.461591|   -5.201882|   -7.625218|    2.389402|
|         119|  5.3972e+00|  5.5953e-09|  7.7122e-01|  5.0000e-01|  5.0000e-01|  5.0000e-01|   -4.910331|   -4.975332|   -5.671777|   -5.461106|   -5.201234|   -7.625191|    2.389421|
|         120|  5.3978e+00|  5.5951e-09|  7.7122e-01|  5.0000e-01|  5.0000e-01|  5.0000e-01|   -4.909688|   -4.974607|   -5.671560|   -5.460621|   -5.200588|   -7.625162|    2.389438|
|         121|  5.3983e+00|  5.5950e-09|  7.7122e-01|  5.0000e-01|  5.0000e-01|  5.0000e-01|   -4.909045|   -4.973884|   -5.671345|   -5.460135|   -5.199941|   -7.625131|    2.389454|
|         122|  5.3992e+00|  5.5949e-09|  7.7122e-01|  5.0000e-01|  5.0000e-01|  5.0000e-01|   -4.908404|   -4.973161|   -5.671130|   -5.459648|   -5.199295|   -7.625098|    2.389469|
|         123|  5.3997e+00|  5.5947e-09|  7.7122e-01|  5.0000e-01|  5.0000e-01|  5.0000e-01|   -4.907765|   -4.972440|   -5.670917|   -5.459159|   -5.198648|   -7.625062|    2.389483|
|         124|  5.4003e+00|  5.5946e-09|  7.7122e-01|  5.0000e-01|  5.0000e-01|  5.0000e-01|   -4.907127|   -4.971721|   -5.670704|   -5.458670|   -5.198003|   -7.625025|    2.389495|
|         125|  5.4011e+00|  5.5944e-09|  7.7122e-01|  5.0000e-01|  5.0000e-01|  5.0000e-01|   -4.906492|   -4.971005|   -5.670492|   -5.458181|   -5.197358|   -7.624985|    2.389507|
|         126|  5.4022e+00|  5.5943e-09|  7.7122e-01|  5.0000e-01|  5.0000e-01|  5.0000e-01|   -4.905859|   -4.970291|   -5.670282|   -5.457693|   -5.196716|   -7.624944|    2.389517|
|         127|  5.4031e+00|  5.5942e-09|  7.7122e-01|  5.0000e-01|  5.0000e-01|  5.0000e-01|   -4.905229|   -4.969579|   -5.670075|   -5.457204|   -5.196076|   -7.624900|    2.389526|
|         128|  5.4043e+00|  5.5940e-09|  7.7122e-01|  5.0000e-01|  5.0000e-01|  5.0000e-01|   -4.904601|   -4.968870|   -5.669868|   -5.456714|   -5.195437|   -7.624855|    2.389533|
|         129|  5.4050e+00|  5.5939e-09|  7.7122e-01|  5.0000e-01|  5.0000e-01|  5.0000e-01|   -4.903975|   -4.968162|   -5.669661|   -5.456224|   -5.194799|   -7.624808|    2.389540|
|         130|  5.4060e+00|  5.5938e-09|  7.7122e-01|  5.0000e-01|  5.0000e-01|  5.0000e-01|   -4.903352|   -4.967457|   -5.669456|   -5.455734|   -5.194162|   -7.624759|    2.389545|
|         131|  5.4064e+00|  5.5936e-09|  7.7122e-01|  5.0000e-01|  5.0000e-01|  5.0000e-01|   -4.902731|   -4.966753|   -5.669252|   -5.455244|   -5.193526|   -7.624708|    2.389549|
|         132|  5.4071e+00|  5.5935e-09|  7.7122e-01|  5.0000e-01|  5.0000e-01|  5.0000e-01|   -4.902111|   -4.966053|   -5.669050|   -5.454753|   -5.192891|   -7.624656|    2.389552|
|         133|  5.4077e+00|  5.5934e-09|  7.7122e-01|  5.0000e-01|  5.0000e-01|  5.0000e-01|   -4.901494|   -4.965354|   -5.668847|   -5.454262|   -5.192257|   -7.624602|    2.389554|
|         134|  5.4081e+00|  5.5932e-09|  7.7122e-01|  5.0000e-01|  5.0000e-01|  5.0000e-01|   -4.900879|   -4.964657|   -5.668646|   -5.453771|   -5.191624|   -7.624546|    2.389554|
|         135|  5.4091e+00|  5.5931e-09|  7.7122e-01|  5.0000e-01|  5.0000e-01|  5.0000e-01|   -4.900265|   -4.963963|   -5.668445|   -5.453280|   -5.190991|   -7.624489|    2.389553|
|         136|  5.4109e+00|  5.5929e-09|  7.7122e-01|  5.0000e-01|  5.0000e-01|  5.0000e-01|   -4.899653|   -4.963271|   -5.668246|   -5.452788|   -5.190360|   -7.624430|    2.389552|
|         137|  5.4116e+00|  5.5928e-09|  7.7122e-01|  5.0000e-01|  5.0000e-01|  5.0000e-01|   -4.899044|   -4.962582|   -5.668048|   -5.452296|   -5.189730|   -7.624369|    2.389549|
|         138|  5.4124e+00|  5.5927e-09|  7.7122e-01|  5.0000e-01|  5.0000e-01|  5.0000e-01|   -4.898438|   -4.961895|   -5.667852|   -5.451804|   -5.189102|   -7.624307|    2.389544|
|         139|  5.4130e+00|  5.5925e-09|  7.7122e-01|  5.0000e-01|  5.0000e-01|  5.0000e-01|   -4.897834|   -4.961211|   -5.667657|   -5.451312|   -5.188476|   -7.624244|    2.389539|
|         140|  5.4133e+00|  5.5924e-09|  7.7122e-01|  5.0000e-01|  5.0000e-01|  5.0000e-01|   -4.897232|   -4.960530|   -5.667463|   -5.450821|   -5.187851|   -7.624179|    2.389532|
|         141|  5.4140e+00|  5.5922e-09|  7.7122e-01|  5.0000e-01|  5.0000e-01|  5.0000e-01|   -4.896633|   -4.959852|   -5.667271|   -5.450329|   -5.187227|   -7.624112|    2.389524|
|         142|  5.4148e+00|  5.5921e-09|  7.7122e-01|  5.0000e-01|  5.0000e-01|  5.0000e-01|   -4.896037|   -4.959177|   -5.667080|   -5.449838|   -5.186606|   -7.624045|    2.389516|
|         143|  5.4154e+00|  5.5920e-09|  7.7122e-01|  5.0000e-01|  5.0000e-01|  5.0000e-01|   -4.895444|   -4.958506|   -5.666891|   -5.449347|   -5.185988|   -7.623976|    2.389505|
|         144|  5.4158e+00|  5.5918e-09|  7.7122e-01|  5.0000e-01|  5.0000e-01|  5.0000e-01|   -4.894855|   -4.957838|   -5.666704|   -5.448857|   -5.185372|   -7.623906|    2.389494|
|         145|  5.4165e+00|  5.5917e-09|  7.7122e-01|  5.0000e-01|  5.0000e-01|  5.0000e-01|   -4.894269|   -4.957175|   -5.666518|   -5.448368|   -5.184760|   -7.623834|    2.389482|
|         146|  5.4170e+00|  5.5915e-09|  7.7122e-01|  5.0000e-01|  5.0000e-01|  5.0000e-01|   -4.893687|   -4.956515|   -5.666334|   -5.447881|   -5.184150|   -7.623762|    2.389468|
|         147|  5.4172e+00|  5.5914e-09|  7.7122e-01|  5.0000e-01|  5.0000e-01|  5.0000e-01|   -4.893109|   -4.955859|   -5.666152|   -5.447394|   -5.183543|   -7.623688|    2.389454|
|         148|  5.4179e+00|  5.5912e-09|  7.7122e-01|  5.0000e-01|  5.0000e-01|  5.0000e-01|   -4.892533|   -4.955206|   -5.665972|   -5.446909|   -5.182938|   -7.623614|    2.389438|
|         149|  5.4182e+00|  5.5911e-09|  7.7122e-01|  5.0000e-01|  5.0000e-01|  5.0000e-01|   -4.891960|   -4.954556|   -5.665793|   -5.446424|   -5.182335|   -7.623538|    2.389421|
|         150|  5.4184e+00|  5.5910e-09|  7.7122e-01|  5.0000e-01|  5.0000e-01|  5.0000e-01|   -4.891390|   -4.953910|   -5.665615|   -5.445940|   -5.181734|   -7.623462|    2.389403|
+-----------------------------------------------------------------------+
|        File Writing Summary       |              Filename             |
+-----------------------------------------------------------------------+
|SU2 binary restart                 |restart_flow.dat                   |
|Paraview                           |flow.vtu                           |
|Paraview surface                   |surface_flow.vtu                   |
+-----------------------------------------------------------------------+
+-------------------------------------------------------------------------------------------------------------------------------------------------------------------------------------+
|  Inner_Iter|   Time(sec)|      Min DT|      Max DT|     Min CFL|     Max CFL|     Avg CFL|    rms[Rho]|   rms[RhoU]|   rms[RhoV]|   rms[RhoW]|   rms[RhoE]|     rms[nu]|          CD|
+-------------------------------------------------------------------------------------------------------------------------------------------------------------------------------------+
|         151|  5.5571e+00|  5.5908e-09|  7.7122e-01|  5.0000e-01|  5.0000e-01|  5.0000e-01|   -4.890824|   -4.953268|   -5.665440|   -5.445457|   -5.181136|   -7.623385|    2.389383|
|         152|  5.5594e+00|  5.5907e-09|  7.7122e-01|  5.0000e-01|  5.0000e-01|  5.0000e-01|   -4.890262|   -4.952632|   -5.665266|   -5.444975|   -5.180542|   -7.623307|    2.389363|
|         153|  5.5622e+00|  5.5905e-09|  7.7122e-01|  5.0000e-01|  5.0000e-01|  5.0000e-01|   -4.889707|   -4.952002|   -5.665095|   -5.444495|   -5.179955|   -7.623228|    2.389342|
|         154|  5.5627e+00|  5.5904e-09|  7.7122e-01|  5.0000e-01|  5.0000e-01|  5.0000e-01|   -4.889157|   -4.951378|   -5.664925|   -5.444017|   -5.179372|   -7.623149|    2.389319|
|         155|  5.5634e+00|  5.5902e-09|  7.7122e-01|  5.0000e-01|  5.0000e-01|  5.0000e-01|   -4.888609|   -4.950757|   -5.664757|   -5.443540|   -5.178791|   -7.623070|    2.389295|
|         156|  5.5643e+00|  5.5901e-09|  7.7122e-01|  5.0000e-01|  5.0000e-01|  5.0000e-01|   -4.888065|   -4.950140|   -5.664589|   -5.443065|   -5.178213|   -7.622989|    2.389271|
|         157|  5.5637e+00|  5.5899e-09|  7.7122e-01|  5.0000e-01|  5.0000e-01|  5.0000e-01|   -4.887525|   -4.949527|   -5.664423|   -5.442591|   -5.177638|   -7.622908|    2.389245|
|         158|  5.5640e+00|  5.5898e-09|  7.7122e-01|  5.0000e-01|  5.0000e-01|  5.0000e-01|   -4.886989|   -4.948918|   -5.664260|   -5.442118|   -5.177066|   -7.622827|    2.389218|
|         159|  5.5637e+00|  5.5896e-09|  7.7122e-01|  5.0000e-01|  5.0000e-01|  5.0000e-01|   -4.886456|   -4.948313|   -5.664098|   -5.441648|   -5.176497|   -7.622746|    2.389190|
|         160|  5.5633e+00|  5.5895e-09|  7.7122e-01|  5.0000e-01|  5.0000e-01|  5.0000e-01|   -4.885927|   -4.947712|   -5.663938|   -5.441179|   -5.175931|   -7.622664|    2.389160|
|         161|  5.5628e+00|  5.5893e-09|  7.7122e-01|  5.0000e-01|  5.0000e-01|  5.0000e-01|   -4.885402|   -4.947115|   -5.663780|   -5.440711|   -5.175367|   -7.622582|    2.389130|
|         162|  5.5623e+00|  5.5892e-09|  7.7122e-01|  5.0000e-01|  5.0000e-01|  5.0000e-01|   -4.884880|   -4.946522|   -5.663623|   -5.440244|   -5.174807|   -7.622499|    2.389099|
|         163|  5.5618e+00|  5.5891e-09|  7.7122e-01|  5.0000e-01|  5.0000e-01|  5.0000e-01|   -4.884362|   -4.945933|   -5.663468|   -5.439779|   -5.174249|   -7.622416|    2.389066|
|         164|  5.5619e+00|  5.5889e-09|  7.7122e-01|  5.0000e-01|  5.0000e-01|  5.0000e-01|   -4.883848|   -4.945349|   -5.663315|   -5.439318|   -5.173696|   -7.622333|    2.389033|
|         165|  5.5614e+00|  5.5888e-09|  7.7122e-01|  5.0000e-01|  5.0000e-01|  5.0000e-01|   -4.883340|   -4.944769|   -5.663165|   -5.438858|   -5.173147|   -7.622250|    2.388998|
|         166|  5.5607e+00|  5.5886e-09|  7.7122e-01|  5.0000e-01|  5.0000e-01|  5.0000e-01|   -4.882835|   -4.944193|   -5.663016|   -5.438401|   -5.172601|   -7.622167|    2.388963|
|         167|  5.5601e+00|  5.5885e-09|  7.7122e-01|  5.0000e-01|  5.0000e-01|  5.0000e-01|   -4.882333|   -4.943622|   -5.662869|   -5.437944|   -5.172057|   -7.622084|    2.388926|
|         168|  5.5593e+00|  5.5883e-09|  7.7122e-01|  5.0000e-01|  5.0000e-01|  5.0000e-01|   -4.881836|   -4.943054|   -5.662723|   -5.437490|   -5.171516|   -7.622001|    2.388888|
|         169|  5.5589e+00|  5.5881e-09|  7.7122e-01|  5.0000e-01|  5.0000e-01|  5.0000e-01|   -4.881342|   -4.942491|   -5.662579|   -5.437037|   -5.170980|   -7.621918|    2.388849|
|         170|  5.5580e+00|  5.5880e-09|  7.7122e-01|  5.0000e-01|  5.0000e-01|  5.0000e-01|   -4.880853|   -4.941932|   -5.662436|   -5.436587|   -5.170446|   -7.621835|    2.388809|
|         171|  5.5570e+00|  5.5878e-09|  7.7122e-01|  5.0000e-01|  5.0000e-01|  5.0000e-01|   -4.880368|   -4.941377|   -5.662296|   -5.436138|   -5.169916|   -7.621753|    2.388768|
|         172|  5.5561e+00|  5.5877e-09|  7.7122e-01|  5.0000e-01|  5.0000e-01|  5.0000e-01|   -4.879886|   -4.940827|   -5.662157|   -5.435691|   -5.169388|   -7.621671|    2.388726|
|         173|  5.5553e+00|  5.5875e-09|  7.7122e-01|  5.0000e-01|  5.0000e-01|  5.0000e-01|   -4.879409|   -4.940280|   -5.662019|   -5.435246|   -5.168864|   -7.621589|    2.388683|
|         174|  5.5550e+00|  5.5874e-09|  7.7122e-01|  5.0000e-01|  5.0000e-01|  5.0000e-01|   -4.878936|   -4.939739|   -5.661883|   -5.434802|   -5.168344|   -7.621508|    2.388639|
|         175|  5.5547e+00|  5.5872e-09|  7.7122e-01|  5.0000e-01|  5.0000e-01|  5.0000e-01|   -4.878467|   -4.939202|   -5.661748|   -5.434361|   -5.167827|   -7.621426|    2.388594|
|         176|  5.5551e+00|  5.5871e-09|  7.7122e-01|  5.0000e-01|  5.0000e-01|  5.0000e-01|   -4.878002|   -4.938671|   -5.661615|   -5.433922|   -5.167314|   -7.621346|    2.388548|
|         177|  5.5544e+00|  5.5869e-09|  7.7122e-01|  5.0000e-01|  5.0000e-01|  5.0000e-01|   -4.877542|   -4.938143|   -5.661483|   -5.433485|   -5.166804|   -7.621266|    2.388501|
|         178|  5.5538e+00|  5.5868e-09|  7.7122e-01|  5.0000e-01|  5.0000e-01|  5.0000e-01|   -4.877086|   -4.937621|   -5.661352|   -5.433050|   -5.166298|   -7.621186|    2.388452|
|         179|  5.5534e+00|  5.5866e-09|  7.7122e-01|  5.0000e-01|  5.0000e-01|  5.0000e-01|   -4.876637|   -4.937106|   -5.661224|   -5.432618|   -5.165800|   -7.621107|    2.388403|
|         180|  5.5527e+00|  5.5865e-09|  7.7122e-01|  5.0000e-01|  5.0000e-01|  5.0000e-01|   -4.876192|   -4.936595|   -5.661098|   -5.432188|   -5.165305|   -7.621028|    2.388352|
|         181|  5.5522e+00|  5.5863e-09|  7.7122e-01|  5.0000e-01|  5.0000e-01|  5.0000e-01|   -4.875752|   -4.936089|   -5.660974|   -5.431760|   -5.164814|   -7.620950|    2.388301|
|         182|  5.5514e+00|  5.5862e-09|  7.7122e-01|  5.0000e-01|  5.0000e-01|  5.0000e-01|   -4.875319|   -4.935592|   -5.660851|   -5.431334|   -5.164331|   -7.620873|    2.388249|
|         183|  5.5506e+00|  5.5860e-09|  7.7122e-01|  5.0000e-01|  5.0000e-01|  5.0000e-01|   -4.874893|   -4.935103|   -5.660729|   -5.430911|   -5.163854|   -7.620796|    2.388195|
|         184|  5.5499e+00|  5.5858e-09|  7.7122e-01|  5.0000e-01|  5.0000e-01|  5.0000e-01|   -4.874471|   -4.934618|   -5.660607|   -5.430489|   -5.163380|   -7.620721|    2.388141|
|         185|  5.5493e+00|  5.5857e-09|  7.7122e-01|  5.0000e-01|  5.0000e-01|  5.0000e-01|   -4.874052|   -4.934136|   -5.660488|   -5.430069|   -5.162909|   -7.620646|    2.388085|
|         186|  5.5491e+00|  5.5855e-09|  7.7122e-01|  5.0000e-01|  5.0000e-01|  5.0000e-01|   -4.873637|   -4.933660|   -5.660369|   -5.429651|   -5.162441|   -7.620572|    2.388028|
|         187|  5.5486e+00|  5.5854e-09|  7.7122e-01|  5.0000e-01|  5.0000e-01|  5.0000e-01|   -4.873226|   -4.933187|   -5.660254|   -5.429235|   -5.161977|   -7.620499|    2.387971|
|         188|  5.5480e+00|  5.5852e-09|  7.7122e-01|  5.0000e-01|  5.0000e-01|  5.0000e-01|   -4.872819|   -4.932718|   -5.660140|   -5.428824|   -5.161516|   -7.620427|    2.387912|
|         189|  5.5475e+00|  5.5851e-09|  7.7122e-01|  5.0000e-01|  5.0000e-01|  5.0000e-01|   -4.872418|   -4.932256|   -5.660028|   -5.428415|   -5.161060|   -7.620356|    2.387852|
|         190|  5.5468e+00|  5.5849e-09|  7.7122e-01|  5.0000e-01|  5.0000e-01|  5.0000e-01|   -4.872019|   -4.931796|   -5.659915|   -5.428009|   -5.160606|   -7.620287|    2.387792|
|         191|  5.5462e+00|  5.5847e-09|  7.7122e-01|  5.0000e-01|  5.0000e-01|  5.0000e-01|   -4.871631|   -4.931348|   -5.659813|   -5.427626|   -5.160164|   -7.620218|    2.387730|
|         192|  5.5456e+00|  5.5846e-09|  7.7122e-01|  5.0000e-01|  5.0000e-01|  5.0000e-01|   -4.871247|   -4.930903|   -5.659711|   -5.427246|   -5.159726|   -7.620151|    2.387667|
|         193|  5.5450e+00|  5.5844e-09|  7.7122e-01|  5.0000e-01|  5.0000e-01|  5.0000e-01|   -4.870867|   -4.930462|   -5.659610|   -5.426869|   -5.159292|   -7.620086|    2.387603|
|         194|  5.5445e+00|  5.5843e-09|  7.7122e-01|  5.0000e-01|  5.0000e-01|  5.0000e-01|   -4.870489|   -4.930024|   -5.659509|   -5.426494|   -5.158859|   -7.620022|    2.387539|
|         195|  5.5437e+00|  5.5841e-09|  7.7122e-01|  5.0000e-01|  5.0000e-01|  5.0000e-01|   -4.870115|   -4.929590|   -5.659409|   -5.426120|   -5.158429|   -7.619959|    2.387473|
|         196|  5.5431e+00|  5.5839e-09|  7.7122e-01|  5.0000e-01|  5.0000e-01|  5.0000e-01|   -4.869744|   -4.929159|   -5.659309|   -5.425746|   -5.158001|   -7.619898|    2.387406|
|         197|  5.5426e+00|  5.5838e-09|  7.7122e-01|  5.0000e-01|  5.0000e-01|  5.0000e-01|   -4.869376|   -4.928731|   -5.659208|   -5.425374|   -5.157576|   -7.619839|    2.387338|
|         198|  5.5434e+00|  5.5836e-09|  7.7122e-01|  5.0000e-01|  5.0000e-01|  5.0000e-01|   -4.869011|   -4.928306|   -5.659108|   -5.425002|   -5.157152|   -7.619782|    2.387269|
|         199|  5.5435e+00|  5.5835e-09|  7.7122e-01|  5.0000e-01|  5.0000e-01|  5.0000e-01|   -4.868649|   -4.927884|   -5.659008|   -5.424631|   -5.156731|   -7.619726|    2.387200|
|         200|  5.5431e+00|  5.5833e-09|  7.7122e-01|  5.0000e-01|  5.0000e-01|  5.0000e-01|   -4.868291|   -4.927468|   -5.658910|   -5.424263|   -5.156314|   -7.619672|    2.387129|
|         201|  5.5431e+00|  5.5831e-09|  7.7122e-01|  5.0000e-01|  5.0000e-01|  5.0000e-01|   -4.867937|   -4.927055|   -5.658813|   -5.423897|   -5.155900|   -7.619620|    2.387057|
|         202|  5.5425e+00|  5.5830e-09|  7.7122e-01|  5.0000e-01|  5.0000e-01|  5.0000e-01|   -4.867587|   -4.926646|   -5.658715|   -5.423532|   -5.155489|   -7.619570|    2.386984|
|         203|  5.5424e+00|  5.5828e-09|  7.7122e-01|  5.0000e-01|  5.0000e-01|  5.0000e-01|   -4.867239|   -4.926240|   -5.658619|   -5.423168|   -5.155081|   -7.619521|    2.386910|
|         204|  5.5419e+00|  5.5827e-09|  7.7122e-01|  5.0000e-01|  5.0000e-01|  5.0000e-01|   -4.866896|   -4.925838|   -5.658523|   -5.422806|   -5.154676|   -7.619475|    2.386835|
|         205|  5.5420e+00|  5.5825e-09|  7.7122e-01|  5.0000e-01|  5.0000e-01|  5.0000e-01|   -4.866557|   -4.925440|   -5.658430|   -5.422446|   -5.154274|   -7.619430|    2.386760|
|         206|  5.5413e+00|  5.5823e-09|  7.7122e-01|  5.0000e-01|  5.0000e-01|  5.0000e-01|   -4.866221|   -4.925046|   -5.658337|   -5.422088|   -5.153875|   -7.619387|    2.386683|
|         207|  5.5408e+00|  5.5822e-09|  7.7122e-01|  5.0000e-01|  5.0000e-01|  5.0000e-01|   -4.865889|   -4.924655|   -5.658245|   -5.421732|   -5.153480|   -7.619347|    2.386605|
|         208|  5.5405e+00|  5.5820e-09|  7.7122e-01|  5.0000e-01|  5.0000e-01|  5.0000e-01|   -4.865561|   -4.924269|   -5.658154|   -5.421377|   -5.153088|   -7.619308|    2.386526|
|         209|  5.5400e+00|  5.5818e-09|  7.7122e-01|  5.0000e-01|  5.0000e-01|  5.0000e-01|   -4.865236|   -4.923886|   -5.658065|   -5.421024|   -5.152699|   -7.619271|    2.386447|
|         210|  5.5399e+00|  5.5817e-09|  7.7122e-01|  5.0000e-01|  5.0000e-01|  5.0000e-01|   -4.864915|   -4.923507|   -5.657977|   -5.420673|   -5.152313|   -7.619236|    2.386366|
|         211|  5.5396e+00|  5.5815e-09|  7.7122e-01|  5.0000e-01|  5.0000e-01|  5.0000e-01|   -4.864598|   -4.923131|   -5.657891|   -5.420323|   -5.151930|   -7.619203|    2.386284|
|         212|  5.5392e+00|  5.5814e-09|  7.7122e-01|  5.0000e-01|  5.0000e-01|  5.0000e-01|   -4.864283|   -4.922759|   -5.657805|   -5.419974|   -5.151548|   -7.619172|    2.386202|
|         213|  5.5387e+00|  5.5812e-09|  7.7122e-01|  5.0000e-01|  5.0000e-01|  5.0000e-01|   -4.863970|   -4.922388|   -5.657719|   -5.419628|   -5.151168|   -7.619144|    2.386118|
|         214|  5.5382e+00|  5.5810e-09|  7.7122e-01|  5.0000e-01|  5.0000e-01|  5.0000e-01|   -4.863660|   -4.922020|   -5.657635|   -5.419282|   -5.150791|   -7.619117|    2.386034|
|         215|  5.5382e+00|  5.5809e-09|  7.7122e-01|  5.0000e-01|  5.0000e-01|  5.0000e-01|   -4.863354|   -4.921657|   -5.657554|   -5.418938|   -5.150417|   -7.619093|    2.385948|
|         216|  5.5381e+00|  5.5807e-09|  7.7122e-01|  5.0000e-01|  5.0000e-01|  5.0000e-01|   -4.863054|   -4.921300|   -5.657476|   -5.418600|   -5.150048|   -7.619071|    2.385862|
|         217|  5.5375e+00|  5.5805e-09|  7.7122e-01|  5.0000e-01|  5.0000e-01|  5.0000e-01|   -4.862758|   -4.920947|   -5.657402|   -5.418266|   -5.149685|   -7.619051|    2.385774|
|         218|  5.5368e+00|  5.5804e-09|  7.7122e-01|  5.0000e-01|  5.0000e-01|  5.0000e-01|   -4.862465|   -4.920597|   -5.657329|   -5.417933|   -5.149323|   -7.619034|    2.385686|
|         219|  5.5363e+00|  5.5802e-09|  7.7122e-01|  5.0000e-01|  5.0000e-01|  5.0000e-01|   -4.862176|   -4.920250|   -5.657258|   -5.417604|   -5.148964|   -7.619019|    2.385597|
|         220|  5.5367e+00|  5.5800e-09|  7.7122e-01|  5.0000e-01|  5.0000e-01|  5.0000e-01|   -4.861890|   -4.919907|   -5.657189|   -5.417277|   -5.148608|   -7.619005|    2.385507|
|         221|  5.5363e+00|  5.5799e-09|  7.7122e-01|  5.0000e-01|  5.0000e-01|  5.0000e-01|   -4.861609|   -4.919568|   -5.657122|   -5.416953|   -5.148255|   -7.618994|    2.385416|
|         222|  5.5361e+00|  5.5797e-09|  7.7122e-01|  5.0000e-01|  5.0000e-01|  5.0000e-01|   -4.861330|   -4.919232|   -5.657056|   -5.416630|   -5.147905|   -7.618986|    2.385324|
|         223|  5.5358e+00|  5.5795e-09|  7.7122e-01|  5.0000e-01|  5.0000e-01|  5.0000e-01|   -4.861055|   -4.918900|   -5.656992|   -5.416307|   -5.147558|   -7.618980|    2.385231|
|         224|  5.5352e+00|  5.5794e-09|  7.7122e-01|  5.0000e-01|  5.0000e-01|  5.0000e-01|   -4.860783|   -4.918571|   -5.656930|   -5.415987|   -5.147213|   -7.618977|    2.385138|
|         225|  5.5348e+00|  5.5792e-09|  7.7122e-01|  5.0000e-01|  5.0000e-01|  5.0000e-01|   -4.860516|   -4.918247|   -5.656871|   -5.415668|   -5.146873|   -7.618976|    2.385043|
|         226|  5.5346e+00|  5.5790e-09|  7.7122e-01|  5.0000e-01|  5.0000e-01|  5.0000e-01|   -4.860253|   -4.917927|   -5.656813|   -5.415351|   -5.146536|   -7.618978|    2.384948|
|         227|  5.5342e+00|  5.5789e-09|  7.7122e-01|  5.0000e-01|  5.0000e-01|  5.0000e-01|   -4.859994|   -4.917610|   -5.656757|   -5.415038|   -5.146202|   -7.618982|    2.384851|
|         228|  5.5342e+00|  5.5787e-09|  7.7122e-01|  5.0000e-01|  5.0000e-01|  5.0000e-01|   -4.859737|   -4.917298|   -5.656703|   -5.414725|   -5.145871|   -7.618989|    2.384754|
|         229|  5.5342e+00|  5.5785e-09|  7.7122e-01|  5.0000e-01|  5.0000e-01|  5.0000e-01|   -4.859485|   -4.916989|   -5.656651|   -5.414414|   -5.145542|   -7.618999|    2.384656|
|         230|  5.5337e+00|  5.5784e-09|  7.7122e-01|  5.0000e-01|  5.0000e-01|  5.0000e-01|   -4.859235|   -4.916684|   -5.656600|   -5.414106|   -5.145216|   -7.619011|    2.384558|
|         231|  5.5332e+00|  5.5782e-09|  7.7122e-01|  5.0000e-01|  5.0000e-01|  5.0000e-01|   -4.858989|   -4.916382|   -5.656550|   -5.413801|   -5.144894|   -7.619026|    2.384458|
|         232|  5.5330e+00|  5.5780e-09|  7.7122e-01|  5.0000e-01|  5.0000e-01|  5.0000e-01|   -4.858748|   -4.916086|   -5.656502|   -5.413497|   -5.144575|   -7.619044|    2.384358|
|         233|  5.5326e+00|  5.5779e-09|  7.7122e-01|  5.0000e-01|  5.0000e-01|  5.0000e-01|   -4.858510|   -4.915793|   -5.656456|   -5.413196|   -5.144260|   -7.619064|    2.384256|
|         234|  5.5328e+00|  5.5777e-09|  7.7122e-01|  5.0000e-01|  5.0000e-01|  5.0000e-01|   -4.858277|   -4.915505|   -5.656413|   -5.412896|   -5.143949|   -7.619087|    2.384154|
|         235|  5.5327e+00|  5.5775e-09|  7.7122e-01|  5.0000e-01|  5.0000e-01|  5.0000e-01|   -4.858049|   -4.915221|   -5.656371|   -5.412599|   -5.143642|   -7.619113|    2.384051|
|         236|  5.5325e+00|  5.5774e-09|  7.7122e-01|  5.0000e-01|  5.0000e-01|  5.0000e-01|   -4.857826|   -4.914943|   -5.656331|   -5.412306|   -5.143340|   -7.619142|    2.383948|
|         237|  5.5322e+00|  5.5772e-09|  7.7122e-01|  5.0000e-01|  5.0000e-01|  5.0000e-01|   -4.857607|   -4.914670|   -5.656294|   -5.412015|   -5.143042|   -7.619173|    2.383843|
|         238|  5.5320e+00|  5.5770e-09|  7.7122e-01|  5.0000e-01|  5.0000e-01|  5.0000e-01|   -4.857393|   -4.914401|   -5.656260|   -5.411728|   -5.142748|   -7.619207|    2.383738|
|         239|  5.5315e+00|  5.5769e-09|  7.7122e-01|  5.0000e-01|  5.0000e-01|  5.0000e-01|   -4.857184|   -4.914137|   -5.656229|   -5.411443|   -5.142459|   -7.619244|    2.383632|
|         240|  5.5311e+00|  5.5767e-09|  7.7122e-01|  5.0000e-01|  5.0000e-01|  5.0000e-01|   -4.856979|   -4.913879|   -5.656198|   -5.411162|   -5.142173|   -7.619284|    2.383526|
|         241|  5.5305e+00|  5.5765e-09|  7.7122e-01|  5.0000e-01|  5.0000e-01|  5.0000e-01|   -4.856779|   -4.913625|   -5.656170|   -5.410883|   -5.141892|   -7.619327|    2.383418|
|         242|  5.5303e+00|  5.5764e-09|  7.7122e-01|  5.0000e-01|  5.0000e-01|  5.0000e-01|   -4.856583|   -4.913376|   -5.656143|   -5.410608|   -5.141614|   -7.619372|    2.383310|
|         243|  5.5298e+00|  5.5762e-09|  7.7122e-01|  5.0000e-01|  5.0000e-01|  5.0000e-01|   -4.856392|   -4.913132|   -5.656119|   -5.410336|   -5.141342|   -7.619421|    2.383201|
|         244|  5.5295e+00|  5.5760e-09|  7.7122e-01|  5.0000e-01|  5.0000e-01|  5.0000e-01|   -4.856205|   -4.912893|   -5.656096|   -5.410066|   -5.141072|   -7.619472|    2.383092|
|         245|  5.5290e+00|  5.5759e-09|  7.7122e-01|  5.0000e-01|  5.0000e-01|  5.0000e-01|   -4.856022|   -4.912660|   -5.656073|   -5.409797|   -5.140807|   -7.619527|    2.382982|
|         246|  5.5288e+00|  5.5757e-09|  7.7122e-01|  5.0000e-01|  5.0000e-01|  5.0000e-01|   -4.855841|   -4.912429|   -5.656053|   -5.409530|   -5.140544|   -7.619584|    2.382871|
|         247|  5.5286e+00|  5.5755e-09|  7.7122e-01|  5.0000e-01|  5.0000e-01|  5.0000e-01|   -4.855664|   -4.912203|   -5.656035|   -5.409265|   -5.140284|   -7.619644|    2.382759|
|         248|  5.5282e+00|  5.5754e-09|  7.7122e-01|  5.0000e-01|  5.0000e-01|  5.0000e-01|   -4.855493|   -4.911983|   -5.656019|   -5.409003|   -5.140030|   -7.619708|    2.382647|
|         249|  5.5281e+00|  5.5752e-09|  7.7122e-01|  5.0000e-01|  5.0000e-01|  5.0000e-01|   -4.855327|   -4.911767|   -5.656007|   -5.408744|   -5.139782|   -7.619774|    2.382534|
|         250|  5.5280e+00|  5.5750e-09|  7.7122e-01|  5.0000e-01|  5.0000e-01|  5.0000e-01|   -4.855166|   -4.911558|   -5.655997|   -5.408488|   -5.139538|   -7.619843|    2.382420|
|         251|  5.5277e+00|  5.5749e-09|  7.7122e-01|  5.0000e-01|  5.0000e-01|  5.0000e-01|   -4.855011|   -4.911354|   -5.655991|   -5.408235|   -5.139300|   -7.619916|    2.382306|
|         252|  5.5277e+00|  5.5747e-09|  7.7122e-01|  5.0000e-01|  5.0000e-01|  5.0000e-01|   -4.854861|   -4.911157|   -5.655988|   -5.407985|   -5.139066|   -7.619991|    2.382191|
|         253|  5.5272e+00|  5.5745e-09|  7.7122e-01|  5.0000e-01|  5.0000e-01|  5.0000e-01|   -4.854716|   -4.910966|   -5.655986|   -5.407738|   -5.138838|   -7.620069|    2.382076|
|         254|  5.5269e+00|  5.5744e-09|  7.7122e-01|  5.0000e-01|  5.0000e-01|  5.0000e-01|   -4.854575|   -4.910780|   -5.655985|   -5.407495|   -5.138613|   -7.620151|    2.381960|
|         255|  5.5266e+00|  5.5742e-09|  7.7121e-01|  5.0000e-01|  5.0000e-01|  5.0000e-01|   -4.854440|   -4.910599|   -5.655987|   -5.407256|   -5.138393|   -7.620235|    2.381843|
|         256|  5.5264e+00|  5.5740e-09|  7.7121e-01|  5.0000e-01|  5.0000e-01|  5.0000e-01|   -4.854310|   -4.910425|   -5.655991|   -5.407020|   -5.138179|   -7.620323|    2.381726|
|         257|  5.5262e+00|  5.5738e-09|  7.7121e-01|  5.0000e-01|  5.0000e-01|  5.0000e-01|   -4.854185|   -4.910256|   -5.655997|   -5.406789|   -5.137968|   -7.620413|    2.381608|
|         258|  5.5258e+00|  5.5737e-09|  7.7121e-01|  5.0000e-01|  5.0000e-01|  5.0000e-01|   -4.854064|   -4.910092|   -5.656004|   -5.406560|   -5.137762|   -7.620507|    2.381490|
|         259|  5.5256e+00|  5.5735e-09|  7.7121e-01|  5.0000e-01|  5.0000e-01|  5.0000e-01|   -4.853950|   -4.909934|   -5.656012|   -5.406337|   -5.137563|   -7.620604|    2.381371|
|         260|  5.5253e+00|  5.5733e-09|  7.7121e-01|  5.0000e-01|  5.0000e-01|  5.0000e-01|   -4.853840|   -4.909782|   -5.656020|   -5.406117|   -5.137367|   -7.620703|    2.381251|
|         261|  5.5250e+00|  5.5732e-09|  7.7121e-01|  5.0000e-01|  5.0000e-01|  5.0000e-01|   -4.853736|   -4.909635|   -5.656030|   -5.405900|   -5.137176|   -7.620806|    2.381131|
|         262|  5.5245e+00|  5.5730e-09|  7.7121e-01|  5.0000e-01|  5.0000e-01|  5.0000e-01|   -4.853635|   -4.909494|   -5.656041|   -5.405686|   -5.136989|   -7.620912|    2.381010|
|         263|  5.5242e+00|  5.5728e-09|  7.7121e-01|  5.0000e-01|  5.0000e-01|  5.0000e-01|   -4.853539|   -4.909357|   -5.656052|   -5.405475|   -5.136806|   -7.621021|    2.380889|
|         264|  5.5242e+00|  5.5727e-09|  7.7121e-01|  5.0000e-01|  5.0000e-01|  5.0000e-01|   -4.853448|   -4.909226|   -5.656064|   -5.405268|   -5.136628|   -7.621133|    2.380767|
|         265|  5.5240e+00|  5.5725e-09|  7.7121e-01|  5.0000e-01|  5.0000e-01|  5.0000e-01|   -4.853361|   -4.909100|   -5.656078|   -5.405066|   -5.136453|   -7.621247|    2.380645|
|         266|  5.5239e+00|  5.5723e-09|  7.7121e-01|  5.0000e-01|  5.0000e-01|  5.0000e-01|   -4.853280|   -4.908980|   -5.656092|   -5.404868|   -5.136284|   -7.621365|    2.380522|
|         267|  5.5237e+00|  5.5722e-09|  7.7121e-01|  5.0000e-01|  5.0000e-01|  5.0000e-01|   -4.853204|   -4.908865|   -5.656106|   -5.404674|   -5.136120|   -7.621486|    2.380399|
|         268|  5.5234e+00|  5.5720e-09|  7.7121e-01|  5.0000e-01|  5.0000e-01|  5.0000e-01|   -4.853132|   -4.908755|   -5.656122|   -5.404485|   -5.135960|   -7.621610|    2.380275|
|         269|  5.5231e+00|  5.5718e-09|  7.7121e-01|  5.0000e-01|  5.0000e-01|  5.0000e-01|   -4.853066|   -4.908651|   -5.656139|   -5.404299|   -5.135806|   -7.621737|    2.380151|
|         270|  5.5229e+00|  5.5717e-09|  7.7121e-01|  5.0000e-01|  5.0000e-01|  5.0000e-01|   -4.853004|   -4.908553|   -5.656157|   -5.404116|   -5.135655|   -7.621866|    2.380026|
|         271|  5.5228e+00|  5.5715e-09|  7.7121e-01|  5.0000e-01|  5.0000e-01|  5.0000e-01|   -4.852948|   -4.908460|   -5.656177|   -5.403938|   -5.135510|   -7.621999|    2.379901|
|         272|  5.5225e+00|  5.5713e-09|  7.7121e-01|  5.0000e-01|  5.0000e-01|  5.0000e-01|   -4.852897|   -4.908373|   -5.656198|   -5.403764|   -5.135370|   -7.622135|    2.379776|
|         273|  5.5224e+00|  5.5712e-09|  7.7121e-01|  5.0000e-01|  5.0000e-01|  5.0000e-01|   -4.852851|   -4.908292|   -5.656220|   -5.403594|   -5.135235|   -7.622273|    2.379649|
|         274|  5.5222e+00|  5.5710e-09|  7.7121e-01|  5.0000e-01|  5.0000e-01|  5.0000e-01|   -4.852811|   -4.908216|   -5.656242|   -5.403428|   -5.135106|   -7.622415|    2.379523|
|         275|  5.5220e+00|  5.5708e-09|  7.7121e-01|  5.0000e-01|  5.0000e-01|  5.0000e-01|   -4.852776|   -4.908145|   -5.656266|   -5.403267|   -5.134981|   -7.622559|    2.379396|
|         276|  5.5218e+00|  5.5707e-09|  7.7121e-01|  5.0000e-01|  5.0000e-01|  5.0000e-01|   -4.852746|   -4.908080|   -5.656292|   -5.403110|   -5.134861|   -7.622706|    2.379268|
|         277|  5.5215e+00|  5.5705e-09|  7.7121e-01|  5.0000e-01|  5.0000e-01|  5.0000e-01|   -4.852722|   -4.908022|   -5.656321|   -5.402960|   -5.134748|   -7.622856|    2.379140|
|         278|  5.5212e+00|  5.5703e-09|  7.7121e-01|  5.0000e-01|  5.0000e-01|  5.0000e-01|   -4.852703|   -4.907969|   -5.656350|   -5.402813|   -5.134638|   -7.623009|    2.379012|
|         279|  5.5209e+00|  5.5702e-09|  7.7121e-01|  5.0000e-01|  5.0000e-01|  5.0000e-01|   -4.852689|   -4.907921|   -5.656380|   -5.402669|   -5.134533|   -7.623165|    2.378883|
|         280|  5.5207e+00|  5.5700e-09|  7.7121e-01|  5.0000e-01|  5.0000e-01|  5.0000e-01|   -4.852680|   -4.907879|   -5.656412|   -5.402530|   -5.134433|   -7.623323|    2.378754|
|         281|  5.5205e+00|  5.5698e-09|  7.7121e-01|  5.0000e-01|  5.0000e-01|  5.0000e-01|   -4.852675|   -4.907842|   -5.656444|   -5.402393|   -5.134337|   -7.623485|    2.378624|
|         282|  5.5203e+00|  5.5697e-09|  7.7121e-01|  5.0000e-01|  5.0000e-01|  5.0000e-01|   -4.852676|   -4.907810|   -5.656477|   -5.402260|   -5.134246|   -7.623649|    2.378494|
|         283|  5.5203e+00|  5.5695e-09|  7.7121e-01|  5.0000e-01|  5.0000e-01|  5.0000e-01|   -4.852680|   -4.907783|   -5.656511|   -5.402131|   -5.134158|   -7.623816|    2.378363|
|         284|  5.5202e+00|  5.5694e-09|  7.7121e-01|  5.0000e-01|  5.0000e-01|  5.0000e-01|   -4.852688|   -4.907760|   -5.656546|   -5.402005|   -5.134074|   -7.623987|    2.378232|
|         285|  5.5202e+00|  5.5692e-09|  7.7121e-01|  5.0000e-01|  5.0000e-01|  5.0000e-01|   -4.852700|   -4.907743|   -5.656582|   -5.401883|   -5.133994|   -7.624160|    2.378101|
|         286|  5.5200e+00|  5.5690e-09|  7.7121e-01|  5.0000e-01|  5.0000e-01|  5.0000e-01|   -4.852718|   -4.907730|   -5.656619|   -5.401765|   -5.133919|   -7.624335|    2.377969|
|         287|  5.5198e+00|  5.5689e-09|  7.7121e-01|  5.0000e-01|  5.0000e-01|  5.0000e-01|   -4.852740|   -4.907723|   -5.656657|   -5.401652|   -5.133849|   -7.624514|    2.377837|
|         288|  5.5195e+00|  5.5687e-09|  7.7121e-01|  5.0000e-01|  5.0000e-01|  5.0000e-01|   -4.852768|   -4.907722|   -5.656696|   -5.401542|   -5.133784|   -7.624696|    2.377704|
|         289|  5.5193e+00|  5.5685e-09|  7.7121e-01|  5.0000e-01|  5.0000e-01|  5.0000e-01|   -4.852801|   -4.907726|   -5.656738|   -5.401436|   -5.133724|   -7.624880|    2.377571|
|         290|  5.5191e+00|  5.5684e-09|  7.7121e-01|  5.0000e-01|  5.0000e-01|  5.0000e-01|   -4.852839|   -4.907735|   -5.656783|   -5.401335|   -5.133669|   -7.625067|    2.377438|
|         291|  5.5188e+00|  5.5682e-09|  7.7121e-01|  5.0000e-01|  5.0000e-01|  5.0000e-01|   -4.852880|   -4.907747|   -5.656829|   -5.401236|   -5.133617|   -7.625257|    2.377304|
|         292|  5.5187e+00|  5.5680e-09|  7.7121e-01|  5.0000e-01|  5.0000e-01|  5.0000e-01|   -4.852926|   -4.907765|   -5.656877|   -5.401142|   -5.133570|   -7.625449|    2.377170|
|         293|  5.5183e+00|  5.5679e-09|  7.7121e-01|  5.0000e-01|  5.0000e-01|  5.0000e-01|   -4.852977|   -4.907788|   -5.656926|   -5.401053|   -5.133527|   -7.625645|    2.377035|
|         294|  5.5182e+00|  5.5677e-09|  7.7121e-01|  5.0000e-01|  5.0000e-01|  5.0000e-01|   -4.853031|   -4.907816|   -5.656976|   -5.400967|   -5.133487|   -7.625843|    2.376901|
|         295|  5.5179e+00|  5.5676e-09|  7.7121e-01|  5.0000e-01|  5.0000e-01|  5.0000e-01|   -4.853090|   -4.907848|   -5.657026|   -5.400885|   -5.133452|   -7.626044|    2.376765|
|         296|  5.5175e+00|  5.5674e-09|  7.7121e-01|  5.0000e-01|  5.0000e-01|  5.0000e-01|   -4.853153|   -4.907883|   -5.657076|   -5.400807|   -5.133419|   -7.626247|    2.376629|
|         297|  5.5174e+00|  5.5672e-09|  7.7121e-01|  5.0000e-01|  5.0000e-01|  5.0000e-01|   -4.853219|   -4.907924|   -5.657127|   -5.400732|   -5.133390|   -7.626454|    2.376493|
|         298|  5.5170e+00|  5.5671e-09|  7.7121e-01|  5.0000e-01|  5.0000e-01|  5.0000e-01|   -4.853289|   -4.907969|   -5.657179|   -5.400661|   -5.133365|   -7.626662|    2.376357|
|         299|  5.5165e+00|  5.5669e-09|  7.7121e-01|  5.0000e-01|  5.0000e-01|  5.0000e-01|   -4.853362|   -4.908018|   -5.657231|   -5.400592|   -5.133343|   -7.626874|    2.376220|
|         300|  5.5162e+00|  5.5668e-09|  7.7121e-01|  5.0000e-01|  5.0000e-01|  5.0000e-01|   -4.853440|   -4.908072|   -5.657285|   -5.400528|   -5.133325|   -7.627088|    2.376083|
+-----------------------------------------------------------------------+
|        File Writing Summary       |              Filename             |
+-----------------------------------------------------------------------+
|SU2 binary restart                 |restart_flow.dat                   |
|Paraview                           |flow.vtu                           |
|Paraview surface                   |surface_flow.vtu                   |
+-----------------------------------------------------------------------+
+-------------------------------------------------------------------------------------------------------------------------------------------------------------------------------------+
|  Inner_Iter|   Time(sec)|      Min DT|      Max DT|     Min CFL|     Max CFL|     Avg CFL|    rms[Rho]|   rms[RhoU]|   rms[RhoV]|   rms[RhoW]|   rms[RhoE]|     rms[nu]|          CD|
+-------------------------------------------------------------------------------------------------------------------------------------------------------------------------------------+
|         301|  5.5963e+00|  5.5666e-09|  7.7121e-01|  5.0000e-01|  5.0000e-01|  5.0000e-01|   -4.853522|   -4.908130|   -5.657341|   -5.400467|   -5.133310|   -7.627305|    2.375945|
|         302|  5.6001e+00|  5.5664e-09|  7.7121e-01|  5.0000e-01|  5.0000e-01|  5.0000e-01|   -4.853607|   -4.908193|   -5.657398|   -5.400410|   -5.133300|   -7.627525|    2.375807|
|         303|  5.6023e+00|  5.5663e-09|  7.7121e-01|  5.0000e-01|  5.0000e-01|  5.0000e-01|   -4.853697|   -4.908260|   -5.657457|   -5.400357|   -5.133293|   -7.627747|    2.375668|
|         304|  5.6034e+00|  5.5661e-09|  7.7121e-01|  5.0000e-01|  5.0000e-01|  5.0000e-01|   -4.853792|   -4.908332|   -5.657518|   -5.400311|   -5.133292|   -7.627971|    2.375530|
|         305|  5.6045e+00|  5.5660e-09|  7.7121e-01|  5.0000e-01|  5.0000e-01|  5.0000e-01|   -4.853891|   -4.908409|   -5.657579|   -5.400268|   -5.133295|   -7.628198|    2.375390|
|         306|  5.6042e+00|  5.5658e-09|  7.7121e-01|  5.0000e-01|  5.0000e-01|  5.0000e-01|   -4.853995|   -4.908491|   -5.657643|   -5.400230|   -5.133302|   -7.628428|    2.375251|
|         307|  5.6038e+00|  5.5656e-09|  7.7121e-01|  5.0000e-01|  5.0000e-01|  5.0000e-01|   -4.854102|   -4.908577|   -5.657707|   -5.400194|   -5.133314|   -7.628660|    2.375111|
|         308|  5.6033e+00|  5.5655e-09|  7.7121e-01|  5.0000e-01|  5.0000e-01|  5.0000e-01|   -4.854214|   -4.908667|   -5.657773|   -5.400162|   -5.133328|   -7.628894|    2.374971|
|         309|  5.6028e+00|  5.5653e-09|  7.7121e-01|  5.0000e-01|  5.0000e-01|  5.0000e-01|   -4.854329|   -4.908761|   -5.657841|   -5.400134|   -5.133347|   -7.629131|    2.374830|
|         310|  5.6026e+00|  5.5652e-09|  7.7121e-01|  5.0000e-01|  5.0000e-01|  5.0000e-01|   -4.854449|   -4.908861|   -5.657910|   -5.400111|   -5.133370|   -7.629371|    2.374689|
|         311|  5.6022e+00|  5.5650e-09|  7.7121e-01|  5.0000e-01|  5.0000e-01|  5.0000e-01|   -4.854573|   -4.908964|   -5.657980|   -5.400092|   -5.133396|   -7.629612|    2.374548|
|         312|  5.6015e+00|  5.5649e-09|  7.7121e-01|  5.0000e-01|  5.0000e-01|  5.0000e-01|   -4.854700|   -4.909071|   -5.658051|   -5.400078|   -5.133427|   -7.629856|    2.374406|
|         313|  5.6009e+00|  5.5647e-09|  7.7121e-01|  5.0000e-01|  5.0000e-01|  5.0000e-01|   -4.854832|   -4.909182|   -5.658122|   -5.400067|   -5.133461|   -7.630103|    2.374264|
|         314|  5.6004e+00|  5.5646e-09|  7.7121e-01|  5.0000e-01|  5.0000e-01|  5.0000e-01|   -4.854967|   -4.909298|   -5.658195|   -5.400062|   -5.133499|   -7.630351|    2.374121|
|         315|  5.5997e+00|  5.5644e-09|  7.7121e-01|  5.0000e-01|  5.0000e-01|  5.0000e-01|   -4.855107|   -4.909418|   -5.658269|   -5.400060|   -5.133541|   -7.630602|    2.373979|
|         316|  5.5990e+00|  5.5642e-09|  7.7121e-01|  5.0000e-01|  5.0000e-01|  5.0000e-01|   -4.855250|   -4.909542|   -5.658345|   -5.400063|   -5.133586|   -7.630856|    2.373836|
|         317|  5.5985e+00|  5.5641e-09|  7.7121e-01|  5.0000e-01|  5.0000e-01|  5.0000e-01|   -4.855397|   -4.909669|   -5.658424|   -5.400070|   -5.133635|   -7.631111|    2.373692|
|         318|  5.5978e+00|  5.5639e-09|  7.7121e-01|  5.0000e-01|  5.0000e-01|  5.0000e-01|   -4.855548|   -4.909801|   -5.658504|   -5.400080|   -5.133688|   -7.631369|    2.373548|
|         319|  5.5972e+00|  5.5638e-09|  7.7121e-01|  5.0000e-01|  5.0000e-01|  5.0000e-01|   -4.855702|   -4.909937|   -5.658586|   -5.400095|   -5.133744|   -7.631629|    2.373404|
|         320|  5.5966e+00|  5.5636e-09|  7.7121e-01|  5.0000e-01|  5.0000e-01|  5.0000e-01|   -4.855861|   -4.910077|   -5.658670|   -5.400115|   -5.133805|   -7.631891|    2.373260|
|         321|  5.5959e+00|  5.5635e-09|  7.7121e-01|  5.0000e-01|  5.0000e-01|  5.0000e-01|   -4.856026|   -4.910222|   -5.658755|   -5.400140|   -5.133871|   -7.632155|    2.373115|
|         322|  5.5953e+00|  5.5633e-09|  7.7121e-01|  5.0000e-01|  5.0000e-01|  5.0000e-01|   -4.856194|   -4.910371|   -5.658841|   -5.400170|   -5.133941|   -7.632422|    2.372969|
|         323|  5.5948e+00|  5.5632e-09|  7.7121e-01|  5.0000e-01|  5.0000e-01|  5.0000e-01|   -4.856368|   -4.910526|   -5.658928|   -5.400205|   -5.134015|   -7.632690|    2.372824|
|         324|  5.5942e+00|  5.5630e-09|  7.7121e-01|  5.0000e-01|  5.0000e-01|  5.0000e-01|   -4.856545|   -4.910684|   -5.659018|   -5.400244|   -5.134094|   -7.632961|    2.372678|
|         325|  5.5936e+00|  5.5629e-09|  7.7121e-01|  5.0000e-01|  5.0000e-01|  5.0000e-01|   -4.856728|   -4.910847|   -5.659110|   -5.400287|   -5.134177|   -7.633234|    2.372532|
|         326|  5.5930e+00|  5.5627e-09|  7.7121e-01|  5.0000e-01|  5.0000e-01|  5.0000e-01|   -4.856914|   -4.911014|   -5.659203|   -5.400334|   -5.134264|   -7.633509|    2.372385|
|         327|  5.5926e+00|  5.5626e-09|  7.7121e-01|  5.0000e-01|  5.0000e-01|  5.0000e-01|   -4.857105|   -4.911186|   -5.659298|   -5.400385|   -5.134355|   -7.633786|    2.372239|
|         328|  5.5919e+00|  5.5624e-09|  7.7121e-01|  5.0000e-01|  5.0000e-01|  5.0000e-01|   -4.857300|   -4.911362|   -5.659395|   -5.400440|   -5.134449|   -7.634064|    2.372091|
|         329|  5.5912e+00|  5.5623e-09|  7.7121e-01|  5.0000e-01|  5.0000e-01|  5.0000e-01|   -4.857498|   -4.911542|   -5.659493|   -5.400499|   -5.134547|   -7.634345|    2.371944|
|         330|  5.5907e+00|  5.5621e-09|  7.7121e-01|  5.0000e-01|  5.0000e-01|  5.0000e-01|   -4.857702|   -4.911728|   -5.659594|   -5.400562|   -5.134650|   -7.634628|    2.371796|
|         331|  5.5900e+00|  5.5620e-09|  7.7121e-01|  5.0000e-01|  5.0000e-01|  5.0000e-01|   -4.857909|   -4.911917|   -5.659696|   -5.400629|   -5.134757|   -7.634913|    2.371648|
|         332|  5.5895e+00|  5.5619e-09|  7.7121e-01|  5.0000e-01|  5.0000e-01|  5.0000e-01|   -4.858120|   -4.912110|   -5.659800|   -5.400700|   -5.134867|   -7.635199|    2.371500|
|         333|  5.5889e+00|  5.5617e-09|  7.7121e-01|  5.0000e-01|  5.0000e-01|  5.0000e-01|   -4.858337|   -4.912309|   -5.659907|   -5.400776|   -5.134982|   -7.635488|    2.371351|
|         334|  5.5885e+00|  5.5616e-09|  7.7121e-01|  5.0000e-01|  5.0000e-01|  5.0000e-01|   -4.858558|   -4.912512|   -5.660016|   -5.400857|   -5.135101|   -7.635778|    2.371202|
|         335|  5.5878e+00|  5.5614e-09|  7.7121e-01|  5.0000e-01|  5.0000e-01|  5.0000e-01|   -4.858783|   -4.912720|   -5.660130|   -5.400943|   -5.135225|   -7.636070|    2.371053|
|         336|  5.5873e+00|  5.5613e-09|  7.7121e-01|  5.0000e-01|  5.0000e-01|  5.0000e-01|   -4.859012|   -4.912932|   -5.660244|   -5.401032|   -5.135352|   -7.636364|    2.370903|
|         337|  5.5867e+00|  5.5611e-09|  7.7121e-01|  5.0000e-01|  5.0000e-01|  5.0000e-01|   -4.859245|   -4.913148|   -5.660359|   -5.401124|   -5.135482|   -7.636659|    2.370753|
|         338|  5.5860e+00|  5.5610e-09|  7.7121e-01|  5.0000e-01|  5.0000e-01|  5.0000e-01|   -4.859483|   -4.913369|   -5.660477|   -5.401222|   -5.135617|   -7.636956|    2.370603|
|         339|  5.5853e+00|  5.5608e-09|  7.7121e-01|  5.0000e-01|  5.0000e-01|  5.0000e-01|   -4.859726|   -4.913597|   -5.660596|   -5.401325|   -5.135757|   -7.637255|    2.370453|
|         340|  5.5847e+00|  5.5607e-09|  7.7121e-01|  5.0000e-01|  5.0000e-01|  5.0000e-01|   -4.859973|   -4.913828|   -5.660718|   -5.401432|   -5.135902|   -7.637555|    2.370302|
|         341|  5.5841e+00|  5.5606e-09|  7.7121e-01|  5.0000e-01|  5.0000e-01|  5.0000e-01|   -4.860225|   -4.914065|   -5.660841|   -5.401544|   -5.136050|   -7.637857|    2.370151|
|         342|  5.5835e+00|  5.5604e-09|  7.7121e-01|  5.0000e-01|  5.0000e-01|  5.0000e-01|   -4.860482|   -4.914305|   -5.660967|   -5.401659|   -5.136203|   -7.638161|    2.370000|
|         343|  5.5832e+00|  5.5603e-09|  7.7121e-01|  5.0000e-01|  5.0000e-01|  5.0000e-01|   -4.860743|   -4.914551|   -5.661094|   -5.401780|   -5.136361|   -7.638466|    2.369848|
|         344|  5.5826e+00|  5.5601e-09|  7.7121e-01|  5.0000e-01|  5.0000e-01|  5.0000e-01|   -4.861010|   -4.914802|   -5.661224|   -5.401905|   -5.136523|   -7.638773|    2.369696|
|         345|  5.5821e+00|  5.5600e-09|  7.7121e-01|  5.0000e-01|  5.0000e-01|  5.0000e-01|   -4.861281|   -4.915057|   -5.661355|   -5.402035|   -5.136690|   -7.639082|    2.369544|
|         346|  5.5816e+00|  5.5599e-09|  7.7121e-01|  5.0000e-01|  5.0000e-01|  5.0000e-01|   -4.861557|   -4.915318|   -5.661487|   -5.402168|   -5.136862|   -7.639392|    2.369392|
|         347|  5.5811e+00|  5.5597e-09|  7.7121e-01|  5.0000e-01|  5.0000e-01|  5.0000e-01|   -4.861838|   -4.915584|   -5.661621|   -5.402306|   -5.137038|   -7.639704|    2.369240|
|         348|  5.5806e+00|  5.5596e-09|  7.7121e-01|  5.0000e-01|  5.0000e-01|  5.0000e-01|   -4.862123|   -4.915855|   -5.661756|   -5.402448|   -5.137218|   -7.640018|    2.369087|
|         349|  5.5801e+00|  5.5595e-09|  7.7121e-01|  5.0000e-01|  5.0000e-01|  5.0000e-01|   -4.862412|   -4.916130|   -5.661891|   -5.402592|   -5.137402|   -7.640333|    2.368934|
[...]
|        3862|  5.5882e+00|  5.4813e-09|  7.7126e-01|  5.0000e-01|  5.0000e-01|  5.0000e-01|   -4.666365|   -4.729558|   -5.343856|   -5.288810|   -4.954996|   -7.696681|    2.308991|
|        3863|  5.5881e+00|  5.4814e-09|  7.7126e-01|  5.0000e-01|  5.0000e-01|  5.0000e-01|   -4.665453|   -4.728536|   -5.343542|   -5.288140|   -4.954173|   -7.696785|    2.309144|
|        3864|  5.5881e+00|  5.4816e-09|  7.7126e-01|  5.0000e-01|  5.0000e-01|  5.0000e-01|   -4.664541|   -4.727511|   -5.343228|   -5.287468|   -4.953348|   -7.696886|    2.309296|
|        3865|  5.5881e+00|  5.4817e-09|  7.7126e-01|  5.0000e-01|  5.0000e-01|  5.0000e-01|   -4.663627|   -4.726484|   -5.342915|   -5.286795|   -4.952519|   -7.696983|    2.309448|
|        3866|  5.5880e+00|  5.4819e-09|  7.7126e-01|  5.0000e-01|  5.0000e-01|  5.0000e-01|   -4.662713|   -4.725456|   -5.342603|   -5.286121|   -4.951689|   -7.697078|    2.309599|
|        3867|  5.5880e+00|  5.4820e-09|  7.7126e-01|  5.0000e-01|  5.0000e-01|  5.0000e-01|   -4.661799|   -4.724427|   -5.342291|   -5.285447|   -4.950858|   -7.697170|    2.309751|
|        3868|  5.5879e+00|  5.4822e-09|  7.7126e-01|  5.0000e-01|  5.0000e-01|  5.0000e-01|   -4.660885|   -4.723396|   -5.341980|   -5.284772|   -4.950024|   -7.697258|    2.309902|
|        3869|  5.5879e+00|  5.4823e-09|  7.7126e-01|  5.0000e-01|  5.0000e-01|  5.0000e-01|   -4.659970|   -4.722364|   -5.341670|   -5.284095|   -4.949188|   -7.697343|    2.310054|
|        3870|  5.5878e+00|  5.4825e-09|  7.7126e-01|  5.0000e-01|  5.0000e-01|  5.0000e-01|   -4.659055|   -4.721330|   -5.341360|   -5.283418|   -4.948349|   -7.697424|    2.310205|
|        3871|  5.5878e+00|  5.4826e-09|  7.7126e-01|  5.0000e-01|  5.0000e-01|  5.0000e-01|   -4.658139|   -4.720293|   -5.341050|   -5.282739|   -4.947508|   -7.697503|    2.310355|
|        3872|  5.5878e+00|  5.4827e-09|  7.7126e-01|  5.0000e-01|  5.0000e-01|  5.0000e-01|   -4.657221|   -4.719255|   -5.340741|   -5.282059|   -4.946663|   -7.697577|    2.310506|
|        3873|  5.5877e+00|  5.4829e-09|  7.7126e-01|  5.0000e-01|  5.0000e-01|  5.0000e-01|   -4.656303|   -4.718213|   -5.340432|   -5.281378|   -4.945815|   -7.697649|    2.310656|
|        3874|  5.5876e+00|  5.4830e-09|  7.7126e-01|  5.0000e-01|  5.0000e-01|  5.0000e-01|   -4.655382|   -4.717169|   -5.340124|   -5.280695|   -4.944963|   -7.697716|    2.310806|
|        3875|  5.5876e+00|  5.4832e-09|  7.7126e-01|  5.0000e-01|  5.0000e-01|  5.0000e-01|   -4.654461|   -4.716122|   -5.339815|   -5.280010|   -4.944108|   -7.697780|    2.310956|
|        3876|  5.5876e+00|  5.4833e-09|  7.7126e-01|  5.0000e-01|  5.0000e-01|  5.0000e-01|   -4.653539|   -4.715076|   -5.339506|   -5.279324|   -4.943251|   -7.697841|    2.311106|
|        3877|  5.5875e+00|  5.4835e-09|  7.7126e-01|  5.0000e-01|  5.0000e-01|  5.0000e-01|   -4.652618|   -4.714029|   -5.339198|   -5.278637|   -4.942394|   -7.697898|    2.311256|
|        3878|  5.5875e+00|  5.4836e-09|  7.7126e-01|  5.0000e-01|  5.0000e-01|  5.0000e-01|   -4.651697|   -4.712981|   -5.338890|   -5.277949|   -4.941534|   -7.697951|    2.311405|
|        3879|  5.5874e+00|  5.4837e-09|  7.7126e-01|  5.0000e-01|  5.0000e-01|  5.0000e-01|   -4.650775|   -4.711933|   -5.338583|   -5.277262|   -4.940673|   -7.698001|    2.311554|
|        3880|  5.5874e+00|  5.4839e-09|  7.7126e-01|  5.0000e-01|  5.0000e-01|  5.0000e-01|   -4.649854|   -4.710884|   -5.338276|   -5.276574|   -4.939810|   -7.698047|    2.311703|
|        3881|  5.5873e+00|  5.4840e-09|  7.7126e-01|  5.0000e-01|  5.0000e-01|  5.0000e-01|   -4.648932|   -4.709834|   -5.337969|   -5.275885|   -4.938945|   -7.698089|    2.311852|
|        3882|  5.5873e+00|  5.4842e-09|  7.7126e-01|  5.0000e-01|  5.0000e-01|  5.0000e-01|   -4.648010|   -4.708783|   -5.337662|   -5.275195|   -4.938077|   -7.698127|    2.312001|
|        3883|  5.5873e+00|  5.4843e-09|  7.7126e-01|  5.0000e-01|  5.0000e-01|  5.0000e-01|   -4.647088|   -4.707732|   -5.337356|   -5.274504|   -4.937208|   -7.698160|    2.312149|
|        3884|  5.5872e+00|  5.4844e-09|  7.7126e-01|  5.0000e-01|  5.0000e-01|  5.0000e-01|   -4.646167|   -4.706680|   -5.337051|   -5.273813|   -4.936338|   -7.698189|    2.312298|
|        3885|  5.5872e+00|  5.4846e-09|  7.7126e-01|  5.0000e-01|  5.0000e-01|  5.0000e-01|   -4.645246|   -4.705628|   -5.336747|   -5.273123|   -4.935467|   -7.698214|    2.312446|
|        3886|  5.5872e+00|  5.4847e-09|  7.7126e-01|  5.0000e-01|  5.0000e-01|  5.0000e-01|   -4.644327|   -4.704577|   -5.336444|   -5.272433|   -4.934595|   -7.698237|    2.312593|
|        3887|  5.5871e+00|  5.4848e-09|  7.7126e-01|  5.0000e-01|  5.0000e-01|  5.0000e-01|   -4.643409|   -4.703527|   -5.336142|   -5.271744|   -4.933724|   -7.698255|    2.312741|
|        3888|  5.5871e+00|  5.4850e-09|  7.7126e-01|  5.0000e-01|  5.0000e-01|  5.0000e-01|   -4.642491|   -4.702475|   -5.335841|   -5.271054|   -4.932850|   -7.698270|    2.312889|
|        3889|  5.5870e+00|  5.4851e-09|  7.7126e-01|  5.0000e-01|  5.0000e-01|  5.0000e-01|   -4.641574|   -4.701424|   -5.335541|   -5.270364|   -4.931976|   -7.698281|    2.313036|
|        3890|  5.5870e+00|  5.4852e-09|  7.7126e-01|  5.0000e-01|  5.0000e-01|  5.0000e-01|   -4.640658|   -4.700374|   -5.335241|   -5.269675|   -4.931101|   -7.698288|    2.313183|
|        3891|  5.5869e+00|  5.4854e-09|  7.7126e-01|  5.0000e-01|  5.0000e-01|  5.0000e-01|   -4.639741|   -4.699322|   -5.334940|   -5.268985|   -4.930223|   -7.698292|    2.313330|
|        3892|  5.5869e+00|  5.4855e-09|  7.7126e-01|  5.0000e-01|  5.0000e-01|  5.0000e-01|   -4.638823|   -4.698269|   -5.334639|   -5.268296|   -4.929343|   -7.698291|    2.313476|
|        3893|  5.5869e+00|  5.4856e-09|  7.7126e-01|  5.0000e-01|  5.0000e-01|  5.0000e-01|   -4.637906|   -4.697215|   -5.334339|   -5.267606|   -4.928461|   -7.698286|    2.313623|
|        3894|  5.5868e+00|  5.4858e-09|  7.7126e-01|  5.0000e-01|  5.0000e-01|  5.0000e-01|   -4.636989|   -4.696162|   -5.334039|   -5.266915|   -4.927578|   -7.698276|    2.313769|
|        3895|  5.5868e+00|  5.4859e-09|  7.7126e-01|  5.0000e-01|  5.0000e-01|  5.0000e-01|   -4.636073|   -4.695108|   -5.333739|   -5.266226|   -4.926694|   -7.698263|    2.313915|
|        3896|  5.5867e+00|  5.4860e-09|  7.7126e-01|  5.0000e-01|  5.0000e-01|  5.0000e-01|   -4.635157|   -4.694054|   -5.333441|   -5.265538|   -4.925809|   -7.698245|    2.314061|
|        3897|  5.5867e+00|  5.4862e-09|  7.7126e-01|  5.0000e-01|  5.0000e-01|  5.0000e-01|   -4.634242|   -4.693000|   -5.333143|   -5.264851|   -4.924922|   -7.698223|    2.314207|
|        3898|  5.5866e+00|  5.4863e-09|  7.7126e-01|  5.0000e-01|  5.0000e-01|  5.0000e-01|   -4.633328|   -4.691947|   -5.332847|   -5.264168|   -4.924036|   -7.698197|    2.314352|
|        3899|  5.5866e+00|  5.4864e-09|  7.7126e-01|  5.0000e-01|  5.0000e-01|  5.0000e-01|   -4.632415|   -4.690893|   -5.332551|   -5.263484|   -4.923149|   -7.698166|    2.314497|
|        3900|  5.5865e+00|  5.4866e-09|  7.7126e-01|  5.0000e-01|  5.0000e-01|  5.0000e-01|   -4.631501|   -4.689839|   -5.332256|   -5.262800|   -4.922259|   -7.698131|    2.314642|
+-----------------------------------------------------------------------+
|        File Writing Summary       |              Filename             |
+-----------------------------------------------------------------------+
|SU2 binary restart                 |restart_flow.dat                   |
|Paraview                           |flow.vtu                           |
|Paraview surface                   |surface_flow.vtu                   |
+-----------------------------------------------------------------------+
+-------------------------------------------------------------------------------------------------------------------------------------------------------------------------------------+
|  Inner_Iter|   Time(sec)|      Min DT|      Max DT|     Min CFL|     Max CFL|     Avg CFL|    rms[Rho]|   rms[RhoU]|   rms[RhoV]|   rms[RhoW]|   rms[RhoE]|     rms[nu]|          CD|
+-------------------------------------------------------------------------------------------------------------------------------------------------------------------------------------+
|        3901|  5.5923e+00|  5.4867e-09|  7.7126e-01|  5.0000e-01|  5.0000e-01|  5.0000e-01|   -4.630590|   -4.688788|   -5.331962|   -5.262116|   -4.921370|   -7.698091|    2.314787|
|        3902|  5.5925e+00|  5.4868e-09|  7.7126e-01|  5.0000e-01|  5.0000e-01|  5.0000e-01|   -4.629679|   -4.687737|   -5.331668|   -5.261431|   -4.920481|   -7.698047|    2.314932|
|        3903|  5.5927e+00|  5.4869e-09|  7.7126e-01|  5.0000e-01|  5.0000e-01|  5.0000e-01|   -4.628768|   -4.686686|   -5.331374|   -5.260746|   -4.919590|   -7.697999|    2.315076|
|        3904|  5.5928e+00|  5.4871e-09|  7.7126e-01|  5.0000e-01|  5.0000e-01|  5.0000e-01|   -4.627858|   -4.685635|   -5.331082|   -5.260060|   -4.918698|   -7.697946|    2.315220|
|        3905|  5.5928e+00|  5.4872e-09|  7.7126e-01|  5.0000e-01|  5.0000e-01|  5.0000e-01|   -4.626948|   -4.684584|   -5.330789|   -5.259374|   -4.917805|   -7.697889|    2.315364|
|        3906|  5.5930e+00|  5.4873e-09|  7.7126e-01|  5.0000e-01|  5.0000e-01|  5.0000e-01|   -4.626039|   -4.683533|   -5.330498|   -5.258687|   -4.916911|   -7.697827|    2.315508|
|        3907|  5.5931e+00|  5.4874e-09|  7.7126e-01|  5.0000e-01|  5.0000e-01|  5.0000e-01|   -4.625130|   -4.682482|   -5.330207|   -5.258000|   -4.916015|   -7.697761|    2.315651|
|        3908|  5.5931e+00|  5.4876e-09|  7.7126e-01|  5.0000e-01|  5.0000e-01|  5.0000e-01|   -4.624221|   -4.681431|   -5.329916|   -5.257313|   -4.915118|   -7.697690|    2.315794|
|        3909|  5.5932e+00|  5.4877e-09|  7.7126e-01|  5.0000e-01|  5.0000e-01|  5.0000e-01|   -4.623312|   -4.680379|   -5.329626|   -5.256625|   -4.914220|   -7.697615|    2.315937|
|        3910|  5.5932e+00|  5.4878e-09|  7.7126e-01|  5.0000e-01|  5.0000e-01|  5.0000e-01|   -4.622404|   -4.679328|   -5.329337|   -5.255937|   -4.913320|   -7.697535|    2.316080|
|        3911|  5.5933e+00|  5.4879e-09|  7.7126e-01|  5.0000e-01|  5.0000e-01|  5.0000e-01|   -4.621495|   -4.678276|   -5.329049|   -5.255248|   -4.912419|   -7.697450|    2.316223|
|        3912|  5.5934e+00|  5.4880e-09|  7.7126e-01|  5.0000e-01|  5.0000e-01|  5.0000e-01|   -4.620588|   -4.677224|   -5.328763|   -5.254561|   -4.911517|   -7.697361|    2.316365|
|        3913|  5.5934e+00|  5.4882e-09|  7.7126e-01|  5.0000e-01|  5.0000e-01|  5.0000e-01|   -4.619681|   -4.676174|   -5.328478|   -5.253874|   -4.910615|   -7.697267|    2.316507|
|        3914|  5.5935e+00|  5.4883e-09|  7.7126e-01|  5.0000e-01|  5.0000e-01|  5.0000e-01|   -4.618775|   -4.675124|   -5.328195|   -5.253188|   -4.909713|   -7.697169|    2.316649|
|        3915|  5.5935e+00|  5.4884e-09|  7.7126e-01|  5.0000e-01|  5.0000e-01|  5.0000e-01|   -4.617870|   -4.674074|   -5.327913|   -5.252502|   -4.908810|   -7.697065|    2.316791|
|        3916|  5.5936e+00|  5.4885e-09|  7.7126e-01|  5.0000e-01|  5.0000e-01|  5.0000e-01|   -4.616966|   -4.673026|   -5.327633|   -5.251817|   -4.907907|   -7.696958|    2.316932|
|        3917|  5.5936e+00|  5.4886e-09|  7.7126e-01|  5.0000e-01|  5.0000e-01|  5.0000e-01|   -4.616064|   -4.671980|   -5.327355|   -5.251132|   -4.907006|   -7.696845|    2.317073|
|        3918|  5.5936e+00|  5.4887e-09|  7.7126e-01|  5.0000e-01|  5.0000e-01|  5.0000e-01|   -4.615164|   -4.670936|   -5.327077|   -5.250447|   -4.906105|   -7.696728|    2.317214|
|        3919|  5.5936e+00|  5.4889e-09|  7.7126e-01|  5.0000e-01|  5.0000e-01|  5.0000e-01|   -4.614265|   -4.669892|   -5.326801|   -5.249763|   -4.905203|   -7.696607|    2.317355|
|        3920|  5.5936e+00|  5.4890e-09|  7.7126e-01|  5.0000e-01|  5.0000e-01|  5.0000e-01|   -4.613367|   -4.668849|   -5.326526|   -5.249080|   -4.904302|   -7.696481|    2.317495|
|        3921|  5.5937e+00|  5.4891e-09|  7.7126e-01|  5.0000e-01|  5.0000e-01|  5.0000e-01|   -4.612469|   -4.667806|   -5.326252|   -5.248397|   -4.903399|   -7.696351|    2.317635|
|        3922|  5.5937e+00|  5.4892e-09|  7.7126e-01|  5.0000e-01|  5.0000e-01|  5.0000e-01|   -4.611572|   -4.666765|   -5.325978|   -5.247714|   -4.902497|   -7.696216|    2.317775|
|        3923|  5.5937e+00|  5.4893e-09|  7.7126e-01|  5.0000e-01|  5.0000e-01|  5.0000e-01|   -4.610678|   -4.665726|   -5.325707|   -5.247032|   -4.901597|   -7.696077|    2.317915|
|        3924|  5.5937e+00|  5.4894e-09|  7.7126e-01|  5.0000e-01|  5.0000e-01|  5.0000e-01|   -4.609786|   -4.664689|   -5.325436|   -5.246350|   -4.900697|   -7.695933|    2.318054|
|        3925|  5.5937e+00|  5.4895e-09|  7.7126e-01|  5.0000e-01|  5.0000e-01|  5.0000e-01|   -4.608895|   -4.663654|   -5.325168|   -5.245668|   -4.899797|   -7.695785|    2.318193|
|        3926|  5.5937e+00|  5.4896e-09|  7.7126e-01|  5.0000e-01|  5.0000e-01|  5.0000e-01|   -4.608006|   -4.662620|   -5.324899|   -5.244986|   -4.898899|   -7.695632|    2.318332|
|        3927|  5.5938e+00|  5.4897e-09|  7.7126e-01|  5.0000e-01|  5.0000e-01|  5.0000e-01|   -4.607119|   -4.661588|   -5.324632|   -5.244305|   -4.898000|   -7.695474|    2.318470|
|        3928|  5.5938e+00|  5.4899e-09|  7.7126e-01|  5.0000e-01|  5.0000e-01|  5.0000e-01|   -4.606234|   -4.660560|   -5.324366|   -5.243623|   -4.897104|   -7.695312|    2.318609|
|        3929|  5.5938e+00|  5.4900e-09|  7.7126e-01|  5.0000e-01|  5.0000e-01|  5.0000e-01|   -4.605352|   -4.659534|   -5.324102|   -5.242943|   -4.896209|   -7.695145|    2.318747|
|        3930|  5.5937e+00|  5.4901e-09|  7.7126e-01|  5.0000e-01|  5.0000e-01|  5.0000e-01|   -4.604469|   -4.658507|   -5.323840|   -5.242263|   -4.895313|   -7.694974|    2.318885|
|        3931|  5.5937e+00|  5.4902e-09|  7.7126e-01|  5.0000e-01|  5.0000e-01|  5.0000e-01|   -4.603588|   -4.657482|   -5.323578|   -5.241584|   -4.894417|   -7.694798|    2.319022|
|        3932|  5.5937e+00|  5.4903e-09|  7.7126e-01|  5.0000e-01|  5.0000e-01|  5.0000e-01|   -4.602713|   -4.656463|   -5.323320|   -5.240908|   -4.893527|   -7.694617|    2.319159|
|        3933|  5.5937e+00|  5.4904e-09|  7.7126e-01|  5.0000e-01|  5.0000e-01|  5.0000e-01|   -4.601839|   -4.655446|   -5.323063|   -5.240232|   -4.892639|   -7.694432|    2.319296|
|        3934|  5.5936e+00|  5.4905e-09|  7.7126e-01|  5.0000e-01|  5.0000e-01|  5.0000e-01|   -4.600966|   -4.654429|   -5.322806|   -5.239557|   -4.891751|   -7.694242|    2.319433|
|        3935|  5.5936e+00|  5.4906e-09|  7.7126e-01|  5.0000e-01|  5.0000e-01|  5.0000e-01|   -4.600094|   -4.653413|   -5.322550|   -5.238883|   -4.890862|   -7.694048|    2.319570|
|        3936|  5.5936e+00|  5.4907e-09|  7.7126e-01|  5.0000e-01|  5.0000e-01|  5.0000e-01|   -4.599224|   -4.652398|   -5.322295|   -5.238210|   -4.889974|   -7.693850|    2.319706|
|        3937|  5.5935e+00|  5.4908e-09|  7.7126e-01|  5.0000e-01|  5.0000e-01|  5.0000e-01|   -4.598356|   -4.651385|   -5.322043|   -5.237538|   -4.889086|   -7.693647|    2.319842|
|        3938|  5.5935e+00|  5.4909e-09|  7.7126e-01|  5.0000e-01|  5.0000e-01|  5.0000e-01|   -4.597490|   -4.650374|   -5.321792|   -5.236868|   -4.888201|   -7.693439|    2.319977|
|        3939|  5.5935e+00|  5.4910e-09|  7.7126e-01|  5.0000e-01|  5.0000e-01|  5.0000e-01|   -4.596628|   -4.649367|   -5.321544|   -5.236199|   -4.887317|   -7.693227|    2.320113|
|        3940|  5.5935e+00|  5.4911e-09|  7.7126e-01|  5.0000e-01|  5.0000e-01|  5.0000e-01|   -4.595768|   -4.648362|   -5.321297|   -5.235531|   -4.886435|   -7.693010|    2.320248|
|        3941|  5.5934e+00|  5.4912e-09|  7.7126e-01|  5.0000e-01|  5.0000e-01|  5.0000e-01|   -4.594910|   -4.647359|   -5.321051|   -5.234864|   -4.885554|   -7.692789|    2.320382|
|        3942|  5.5934e+00|  5.4913e-09|  7.7126e-01|  5.0000e-01|  5.0000e-01|  5.0000e-01|   -4.594055|   -4.646358|   -5.320807|   -5.234198|   -4.884675|   -7.692564|    2.320517|
|        3943|  5.5933e+00|  5.4914e-09|  7.7126e-01|  5.0000e-01|  5.0000e-01|  5.0000e-01|   -4.593202|   -4.645359|   -5.320563|   -5.233533|   -4.883796|   -7.692333|    2.320651|
|        3944|  5.5933e+00|  5.4915e-09|  7.7126e-01|  5.0000e-01|  5.0000e-01|  5.0000e-01|   -4.592351|   -4.644363|   -5.320321|   -5.232868|   -4.882918|   -7.692099|    2.320785|
|        3945|  5.5933e+00|  5.4916e-09|  7.7126e-01|  5.0000e-01|  5.0000e-01|  5.0000e-01|   -4.591503|   -4.643371|   -5.320081|   -5.232204|   -4.882043|   -7.691860|    2.320919|
|        3946|  5.5932e+00|  5.4917e-09|  7.7126e-01|  5.0000e-01|  5.0000e-01|  5.0000e-01|   -4.590660|   -4.642382|   -5.319844|   -5.231541|   -4.881170|   -7.691618|    2.321052|
|        3947|  5.5932e+00|  5.4918e-09|  7.7126e-01|  5.0000e-01|  5.0000e-01|  5.0000e-01|   -4.589825|   -4.641405|   -5.319608|   -5.230886|   -4.880308|   -7.691370|    2.321185|
|        3948|  5.5932e+00|  5.4918e-09|  7.7126e-01|  5.0000e-01|  5.0000e-01|  5.0000e-01|   -4.589000|   -4.640441|   -5.319372|   -5.230239|   -4.879455|   -7.691119|    2.321318|
|        3949|  5.5931e+00|  5.4919e-09|  7.7126e-01|  5.0000e-01|  5.0000e-01|  5.0000e-01|   -4.588179|   -4.639480|   -5.319138|   -5.229593|   -4.878606|   -7.690864|    2.321450|
|        3950|  5.5931e+00|  5.4920e-09|  7.7126e-01|  5.0000e-01|  5.0000e-01|  5.0000e-01|   -4.587360|   -4.638522|   -5.318907|   -5.228947|   -4.877757|   -7.690604|    2.321582|
|        3951|  5.5931e+00|  5.4921e-09|  7.7126e-01|  5.0000e-01|  5.0000e-01|  5.0000e-01|   -4.586544|   -4.637568|   -5.318677|   -5.228303|   -4.876911|   -7.690341|    2.321714|
|        3952|  5.5930e+00|  5.4922e-09|  7.7126e-01|  5.0000e-01|  5.0000e-01|  5.0000e-01|   -4.585732|   -4.636617|   -5.318448|   -5.227660|   -4.876066|   -7.690073|    2.321846|
|        3953|  5.5930e+00|  5.4923e-09|  7.7126e-01|  5.0000e-01|  5.0000e-01|  5.0000e-01|   -4.584922|   -4.635669|   -5.318221|   -5.227019|   -4.875224|   -7.689802|    2.321977|
|        3954|  5.5929e+00|  5.4924e-09|  7.7126e-01|  5.0000e-01|  5.0000e-01|  5.0000e-01|   -4.584115|   -4.634726|   -5.317997|   -5.226379|   -4.874384|   -7.689526|    2.322108|
|        3955|  5.5929e+00|  5.4925e-09|  7.7126e-01|  5.0000e-01|  5.0000e-01|  5.0000e-01|   -4.583312|   -4.633785|   -5.317775|   -5.225741|   -4.873547|   -7.689247|    2.322239|
|        3956|  5.5928e+00|  5.4926e-09|  7.7126e-01|  5.0000e-01|  5.0000e-01|  5.0000e-01|   -4.582512|   -4.632847|   -5.317555|   -5.225104|   -4.872711|   -7.688964|    2.322369|
|        3957|  5.5928e+00|  5.4926e-09|  7.7126e-01|  5.0000e-01|  5.0000e-01|  5.0000e-01|   -4.581714|   -4.631912|   -5.317338|   -5.224469|   -4.871876|   -7.688676|    2.322499|
|        3958|  5.5928e+00|  5.4927e-09|  7.7126e-01|  5.0000e-01|  5.0000e-01|  5.0000e-01|   -4.580920|   -4.630980|   -5.317122|   -5.223836|   -4.871043|   -7.688385|    2.322629|
|        3959|  5.5927e+00|  5.4928e-09|  7.7126e-01|  5.0000e-01|  5.0000e-01|  5.0000e-01|   -4.580131|   -4.630055|   -5.316911|   -5.223206|   -4.870216|   -7.688090|    2.322758|
|        3960|  5.5927e+00|  5.4929e-09|  7.7126e-01|  5.0000e-01|  5.0000e-01|  5.0000e-01|   -4.579346|   -4.629133|   -5.316702|   -5.222577|   -4.869392|   -7.687792|    2.322888|
|        3961|  5.5927e+00|  5.4930e-09|  7.7126e-01|  5.0000e-01|  5.0000e-01|  5.0000e-01|   -4.578564|   -4.628214|   -5.316495|   -5.221951|   -4.868570|   -7.687489|    2.323017|
|        3962|  5.5926e+00|  5.4930e-09|  7.7126e-01|  5.0000e-01|  5.0000e-01|  5.0000e-01|   -4.577788|   -4.627300|   -5.316293|   -5.221329|   -4.867752|   -7.687183|    2.323145|
|        3963|  5.5926e+00|  5.4931e-09|  7.7126e-01|  5.0000e-01|  5.0000e-01|  5.0000e-01|   -4.577015|   -4.626391|   -5.316093|   -5.220710|   -4.866938|   -7.686873|    2.323274|
