Nodes:  tri[0983-0984]
Tasks:  128
NPN:    64
Config: /scratch/anthonyy/reentry/orion/config/generated/m6_aoa15.cfg

-------------------------------------------------------------------------
|    ___ _   _ ___                                                      |
|   / __| | | |_  )   Release 7.5.1 "Blackbird"                         |
|   \__ \ |_| |/ /                                                      |
|   |___/\___//___|   Suite (Computational Fluid Dynamics Code)         |
|                                                                       |
-------------------------------------------------------------------------
| SU2 Project Website: https://su2code.github.io                        |
|                                                                       |
| The SU2 Project is maintained by the SU2 Foundation                   |
| (http://su2foundation.org)                                            |
-------------------------------------------------------------------------
| Copyright 2012-2023, SU2 Contributors                                 |
|                                                                       |
| SU2 is free software; you can redistribute it and/or                  |
| modify it under the terms of the GNU Lesser General Public            |
| License as published by the Free Software Foundation; either          |
| version 2.1 of the License, or (at your option) any later version.    |
|                                                                       |
| SU2 is distributed in the hope that it will be useful,                |
| but WITHOUT ANY WARRANTY; without even the implied warranty of        |
| MERCHANTABILITY or FITNESS FOR A PARTICULAR PURPOSE. See the GNU      |
| Lesser General Public License for more details.                       |
|                                                                       |
| You should have received a copy of the GNU Lesser General Public      |
| License along with SU2. If not, see <http://www.gnu.org/licenses/>.   |
-------------------------------------------------------------------------

Parsing config file for zone 0

----------------- Physical Case Definition ( Zone 0 ) -------------------
Compressible RANS equations.
Turbulence model: Spalart-Allmaras-noft2
Hybrid RANS/LES: No Hybrid RANS/LES
Mach number: 6.
Angle of attack (AoA): 15 deg, and angle of sideslip (AoS): 0 deg.
Reynolds number: 6.86229e+08. Reference length 5.
Reading and writing binary SU2 native restart files.
Read flow solution from: restart_flow.dat.
Non-Dimensional simulation (V=1.0, Rho=1.0, T=1.0 at the farfield).
The reference area will be computed using y(2D) or z(3D) projection.
The semi-span will be computed using the max y(3D) value.
The reference length is 0.64607 m.
Reference origin for moment evaluation is (0.25, 0, 0).
Surface(s) where the force coefficients are evaluated: ORION_SURFACE.

Input mesh file name: ../../mesh/fine.su2

--------------- Space Numerical Integration ( Zone 0 ) ------------------
Jameson-Schmidt-Turkel scheme (2nd order in space) for the flow inviscid terms.
JST viscous coefficients (2nd & 4th): 0.5, 0.02.
The method includes a grid stretching correction (p = 0.3).
Scalar upwind solver for the turbulence model.
First order integration in space.
Average of gradients with correction (viscous flow terms).
Average of gradients with correction (viscous turbulence terms).
Gradient for upwind reconstruction: Green-Gauss.
Gradient for viscous and source terms: Green-Gauss.

--------------- Time Numerical Integration  ( Zone 0 ) ------------------
Local time stepping (steady state simulation).
Euler implicit method for the flow equations.
FGMRES is used for solving the linear system.
Using a ILU(0) preconditioning.
Convergence criteria of the linear solver: 1e-06.
Max number of linear iterations: 100.
CFL adaptation. Factor down: 0.5, factor up: 1.1,
                lower limit: 0.05, upper limit: 0.5,
                acceptable linear residual: 0.001.
Courant-Friedrichs-Lewy number:     0.03
Euler implicit time integration for the turbulence model.

------------------ Convergence Criteria  ( Zone 0 ) ---------------------
Maximum number of solver subiterations: 999999.
Begin convergence monitoring at iteration 5.
Residual minimum value: 1e-8.
Cauchy series min. value: 1e-10.
Number of Cauchy elements: 100.
Begin windowed time average at iteration 0.

-------------------- Output Information ( Zone 0 ) ----------------------
File writing frequency: 
+------------------------------------+
|                     File| Frequency|
+------------------------------------+
|                  RESTART|       150|
|                 PARAVIEW|       150|
|         SURFACE_PARAVIEW|       150|
+------------------------------------+
Writing the convergence history file every 1 inner iterations.
Writing the screen convergence history every 1 inner iterations.
The tabular file format is CSV (.csv).
Convergence history file name: history.
Forces breakdown file name: forces_breakdown.dat.
Surface file name: surface_flow.
Volume file name: flow.
Restart file name: restart_flow.

------------- Config File Boundary Information ( Zone 0 ) ---------------
+-----------------------------------------------------------------------+
|                        Marker Type|                        Marker Name|
+-----------------------------------------------------------------------+
|                          Far-field|                           FARFIELD|
+-----------------------------------------------------------------------+
|                     Heat flux wall|                      ORION_SURFACE|
+-----------------------------------------------------------------------+

-------------------- Output Preprocessing ( Zone 0 ) --------------------

WARNING: SURFACE_PRESSURE_DROP can only be computed for at least 2 surfaces (outlet, inlet, ...)

Screen output fields: INNER_ITER, WALL_TIME, RMS_DENSITY, RMS_MOMENTUM-X, RMS_MOMENTUM-Y, RMS_MOMENTUM-Z, RMS_ENERGY, RMS_NU_TILDE, DRAG
History output group(s): ITER, RMS_RES
Convergence field(s): RMS_DENSITY
Warning: No (valid) fields chosen for time convergence monitoring. Time convergence monitoring inactive.
Volume output fields: MACH, PRESSURE, TEMPERATURE, DENSITY, HEAT_FLUX, Y_PLUS, COORDINATES, SOLUTION

------------------- Geometry Preprocessing ( Zone 0 ) -------------------
Three dimensional problem.
62211324 grid points before partitioning.
190879888 volume elements before partitioning.
2 surface markers.
4104 boundary elements in index 0 (Marker = FARFIELD).
1824836 boundary elements in index 1 (Marker = ORION_SURFACE).
Executing the partitioning functions.
Building the graph adjacency structure.
Calling ParMETIS... graph partitioning complete (4959327 edge cuts).
Distributing ParMETIS coloring.
Rebalancing vertices.
Rebalancing volume element connectivity.
Rebalancing markers and surface elements.
66952290 vertices including ghost points. 
197997438 interior elements including halo cells. 
103171259 tetrahedra.
94500655 prisms.
325524 pyramids.
Establishing MPI communication patterns.
Setting point connectivity.
Renumbering points (Reverse Cuthill McKee Ordering).
Recomputing point connectivity.
Setting element connectivity.
Checking the numerical grid orientation.
All volume elements are correctly orientend.
All surface elements are correctly orientend.
Identifying edges and vertices.
Setting the control volume structure.
Volume of the computational grid: 535693.
Searching for the closest normal neighbors to the surfaces.
Storing a mapping from global to local point index.
Compute the surface curvature.
Max K: 132.896. Mean K: 3.9104. Standard deviation K: 7.49569.
Checking for periodicity.
Computing mesh quality statistics for the dual control volumes.
+--------------------------------------------------------------+
|           Mesh Quality Metric|        Minimum|        Maximum|
+--------------------------------------------------------------+
|    Orthogonality Angle (deg.)|        53.0661|             90|
|     CV Face Area Aspect Ratio|        1.01143|        75298.5|
|           CV Sub-Volume Ratio|        1.00029|        45.0258|
+--------------------------------------------------------------+
Finding max control volume width.
Communicating number of neighbors.
Reference area = 11.531 m^2.
Semi-span length = 2.49999 m.
Wetted area = 57.9072 m^2.
Area projection in the x-plane = 19.6343 m^2, y-plane = 11.531 m^2, z-plane = 11.531 m^2.
Max. coordinate in the x-direction = 2.575 m, y-direction = 2.49999 m, z-direction = 2.49999 m.
Min. coordinate in the x-direction = -0.71 m, y-direction = -2.49999 m, z-direction = -2.5 m.
Computing wall distances.

-------------------- Solver Preprocessing ( Zone 0 ) --------------------
Viscous flow: Computing pressure using the ideal gas law
based on the free-stream temperature and a density computed
from the Reynolds number.
Force coefficients computed using free-stream values.

-- Models:
+------------------------------------------------------------------------------+
|          Viscosity Model|        Conductivity Model|              Fluid Model|
+------------------------------------------------------------------------------+
|               SUTHERLAND|          CONSTANT_PRANDTL|             STANDARD_AIR|
+------------------------------------------------------------------------------+
-- Fluid properties:
+------------------------------------------------------------------------------+
|                  Name|    Dim. value|    Ref. value|      Unit|Non-dim. value|
+------------------------------------------------------------------------------+
|        Ref. Viscosity|     1.716e-05|       2455.73|   N.s/m^2|   6.98773e-09|
|      Sutherland Temp.|        273.15|        288.15|         K|      0.947944|
|     Sutherland Const.|         110.4|        288.15|         K|      0.383134|
+------------------------------------------------------------------------------+
|        Prandtl (Lam.)|             -|             -|         -|          0.72|
|       Prandtl (Turb.)|             -|             -|         -|           0.9|
+------------------------------------------------------------------------------+
|          Gas Constant|       287.058|       14467.7|  N.m/kg.K|     0.0198413|
|      Spec. Heat Ratio|             -|             -|         -|           1.4|
+------------------------------------------------------------------------------+
-- Initial and free-stream conditions:
+------------------------------------------------------------------------------+
|                  Name|    Dim. value|    Ref. value|      Unit|Non-dim. value|
+------------------------------------------------------------------------------+
|       Static Pressure|       99485.6|   5.01407e+06|        Pa|     0.0198413|
|               Density|       1.20274|       1.20274|    kg/m^3|             1|
|           Temperature|        288.15|        288.15|         K|             1|
|          Total Energy|   2.29123e+06|   4.16887e+06|   m^2/s^2|      0.549603|
|            Velocity-X|       1972.21|       2041.78|       m/s|      0.965926|
|            Velocity-Y|             0|       2041.78|       m/s|             0|
|            Velocity-Z|       528.452|       2041.78|       m/s|      0.258819|
|    Velocity Magnitude|       2041.78|       2041.78|       m/s|             1|
+------------------------------------------------------------------------------+
|             Viscosity|    1.7893e-05|       2455.73|   N.s/m^2|    7.2862e-09|
|          Conductivity|             -|   3.55289e+07|   W/m^2.K|             -|
|     Turb. Kin. Energy|       15633.3|   4.16887e+06|   m^2/s^2|       0.00375|
|     Spec. Dissipation|   1.05085e+08|       2041.78|       1/s|       51467.1|
+------------------------------------------------------------------------------+
|           Mach Number|             -|             -|         -|             6|
|       Reynolds Number|             -|             -|         -|   6.86229e+08|
+------------------------------------------------------------------------------+
Initialize Jacobian structure (Navier-Stokes). MG level: 0.
Initialize Jacobian structure (SA model).

------------------- Numerics Preprocessing ( Zone 0 ) -------------------

----------------- Integration Preprocessing ( Zone 0 ) ------------------

------------------- Iteration Preprocessing ( Zone 0 ) ------------------
Euler/Navier-Stokes/RANS fluid iteration.

------------------------------ Begin Solver -----------------------------

Simulation Run using the Single-zone Driver
WARNING: SU2 was not compiled for an AVX-capable architecture. Performance could be better,
         see https://su2code.github.io/docs_v7/Build-SU2-Linux-MacOS/#compiler-optimizations
+--------------------------------------------------------------------------------------------------------------------+
|  Inner_Iter|   Time(sec)|    rms[Rho]|   rms[RhoU]|   rms[RhoV]|   rms[RhoW]|   rms[RhoE]|     rms[nu]|          CD|
+--------------------------------------------------------------------------------------------------------------------+
|           0|  5.0345e+00|   -5.345715|   -5.579200|   -5.988651|   -5.897699|   -5.687961|   -8.316642|    2.309183|
|           1|  4.7133e+00|   -5.345794|   -5.579201|   -5.988693|   -5.897761|   -5.688133|   -8.316604|    2.309208|
|           2|  4.5952e+00|   -5.345912|   -5.579197|   -5.988755|   -5.897852|   -5.688395|   -8.316594|    2.309236|
|           3|  4.5421e+00|   -5.346038|   -5.579192|   -5.988821|   -5.897948|   -5.688672|   -8.316583|    2.309266|
|           4|  4.5137e+00|   -5.346170|   -5.579186|   -5.988890|   -5.898047|   -5.688965|   -8.316571|    2.309299|
|           5|  4.4873e+00|   -5.346308|   -5.579178|   -5.988962|   -5.898148|   -5.689273|   -8.316558|    2.309335|
|           6|  4.4704e+00|   -5.346452|   -5.579169|   -5.989035|   -5.898250|   -5.689595|   -8.316544|    2.309376|
|           7|  4.5114e+00|   -5.346600|   -5.579156|   -5.989111|   -5.898353|   -5.689930|   -8.316528|    2.309420|
|           8|  4.5678e+00|   -5.346753|   -5.579141|   -5.989187|   -5.898453|   -5.690277|   -8.316511|    2.309468|
|           9|  4.6107e+00|   -5.346909|   -5.579122|   -5.989262|   -5.898550|   -5.690633|   -8.316493|    2.309522|
|          10|  4.6386e+00|   -5.347066|   -5.579098|   -5.989336|   -5.898640|   -5.690996|   -8.316472|    2.309581|
|          11|  4.6498e+00|   -5.347220|   -5.579067|   -5.989406|   -5.898719|   -5.691360|   -8.316451|    2.309646|
|          12|  4.6625e+00|   -5.347371|   -5.579029|   -5.989472|   -5.898783|   -5.691722|   -8.316427|    2.309717|
|          13|  4.6742e+00|   -5.347514|   -5.578981|   -5.989531|   -5.898831|   -5.692076|   -8.316402|    2.309796|
|          14|  4.6802e+00|   -5.347647|   -5.578923|   -5.989581|   -5.898856|   -5.692417|   -8.316374|    2.309882|
|          15|  4.6869e+00|   -5.347768|   -5.578851|   -5.989616|   -5.898852|   -5.692740|   -8.316345|    2.309978|
|          16|  4.6988e+00|   -5.347869|   -5.578764|   -5.989635|   -5.898812|   -5.693033|   -8.316313|    2.310083|
|          17|  4.7091e+00|   -5.347943|   -5.578655|   -5.989632|   -5.898726|   -5.693285|   -8.316279|    2.310199|
|          18|  4.7380e+00|   -5.347982|   -5.578519|   -5.989602|   -5.898580|   -5.693482|   -8.316243|    2.310326|
|          19|  4.7649e+00|   -5.347979|   -5.578348|   -5.989540|   -5.898365|   -5.693611|   -8.316204|    2.310467|
|          20|  4.7886e+00|   -5.347918|   -5.578134|   -5.989438|   -5.898071|   -5.693649|   -8.316164|    2.310622|
|          21|  4.8088e+00|   -5.347791|   -5.577870|   -5.989288|   -5.897679|   -5.693581|   -8.316121|    2.310793|
|          22|  4.8279e+00|   -5.347587|   -5.577544|   -5.989083|   -5.897177|   -5.693389|   -8.316076|    2.310982|
|          23|  4.8457e+00|   -5.347287|   -5.577141|   -5.988811|   -5.896542|   -5.693043|   -8.316030|    2.311190|
|          24|  4.8627e+00|   -5.346867|   -5.576642|   -5.988458|   -5.895752|   -5.692509|   -8.315982|    2.311419|
|          25|  4.8938e+00|   -5.346301|   -5.576024|   -5.988007|   -5.894782|   -5.691748|   -8.315934|    2.311672|
|          26|  4.9229e+00|   -5.345551|   -5.575256|   -5.987437|   -5.893610|   -5.690708|   -8.315963|    2.311930|
|          27|  4.9509e+00|   -5.344764|   -5.574423|   -5.986861|   -5.892436|   -5.689625|   -8.316011|    2.312188|
|          28|  4.9744e+00|   -5.343967|   -5.573547|   -5.986300|   -5.891300|   -5.688545|   -8.316063|    2.312447|
|          29|  4.9994e+00|   -5.343156|   -5.572634|   -5.985753|   -5.890200|   -5.687465|   -8.316118|    2.312707|
|          30|  5.0223e+00|   -5.342330|   -5.571683|   -5.985219|   -5.889140|   -5.686382|   -8.316178|    2.312967|
|          31|  5.0438e+00|   -5.341484|   -5.570695|   -5.984691|   -5.888116|   -5.685293|   -8.316241|    2.313227|
|          32|  5.0612e+00|   -5.340617|   -5.569673|   -5.984169|   -5.887125|   -5.684195|   -8.316308|    2.313488|
|          33|  5.0796e+00|   -5.339721|   -5.568611|   -5.983657|   -5.886168|   -5.683080|   -8.316378|    2.313750|
|          34|  5.0955e+00|   -5.338797|   -5.567515|   -5.983155|   -5.885245|   -5.681948|   -8.316453|    2.314012|
|          35|  5.1123e+00|   -5.337846|   -5.566386|   -5.982658|   -5.884358|   -5.680800|   -8.316531|    2.314275|
|          36|  5.1274e+00|   -5.336879|   -5.565226|   -5.982169|   -5.883515|   -5.679649|   -8.316613|    2.314538|
|          37|  5.1416e+00|   -5.335901|   -5.564037|   -5.981685|   -5.882705|   -5.678496|   -8.316699|    2.314802|
|          38|  5.1558e+00|   -5.334915|   -5.562824|   -5.981206|   -5.881928|   -5.677344|   -8.316789|    2.315066|
|          39|  5.1690e+00|   -5.333917|   -5.561587|   -5.980729|   -5.881183|   -5.676189|   -8.316882|    2.315330|
|          40|  5.1811e+00|   -5.332900|   -5.560326|   -5.980256|   -5.880463|   -5.675024|   -8.316980|    2.315595|
|          41|  5.1926e+00|   -5.331878|   -5.559048|   -5.979788|   -5.879766|   -5.673861|   -8.317081|    2.315861|
|          42|  5.2030e+00|   -5.330855|   -5.557754|   -5.979323|   -5.879092|   -5.672703|   -8.317185|    2.316127|
|          43|  5.2128e+00|   -5.329829|   -5.556448|   -5.978864|   -5.878440|   -5.671550|   -8.317294|    2.316394|
|          44|  5.2223e+00|   -5.328794|   -5.555128|   -5.978408|   -5.877804|   -5.670393|   -8.317406|    2.316660|
|          45|  5.2315e+00|   -5.327749|   -5.553791|   -5.977953|   -5.877187|   -5.669231|   -8.317522|    2.316928|
|          46|  5.2407e+00|   -5.326694|   -5.552440|   -5.977492|   -5.876599|   -5.668065|   -8.317641|    2.317195|
|          47|  5.2487e+00|   -5.325637|   -5.551082|   -5.977034|   -5.876020|   -5.666900|   -8.317765|    2.317464|
|          48|  5.2565e+00|   -5.324568|   -5.549716|   -5.976578|   -5.875456|   -5.665727|   -8.317892|    2.317732|
|          49|  5.2647e+00|   -5.323503|   -5.548340|   -5.976124|   -5.874928|   -5.664563|   -8.318022|    2.318001|
|          50|  5.2725e+00|   -5.322451|   -5.546962|   -5.975675|   -5.874424|   -5.663416|   -8.318156|    2.318270|
|          51|  5.2815e+00|   -5.321401|   -5.545580|   -5.975229|   -5.873937|   -5.662273|   -8.318294|    2.318540|
|          52|  5.2889e+00|   -5.320350|   -5.544194|   -5.974787|   -5.873462|   -5.661133|   -8.318436|    2.318810|
|          53|  5.2964e+00|   -5.319314|   -5.542812|   -5.974346|   -5.873002|   -5.660009|   -8.318581|    2.319080|
|          54|  5.3027e+00|   -5.318288|   -5.541435|   -5.973909|   -5.872548|   -5.658899|   -8.318729|    2.319351|
|          55|  5.3094e+00|   -5.317281|   -5.540064|   -5.973474|   -5.872107|   -5.657810|   -8.318882|    2.319622|
|          56|  5.3148e+00|   -5.316293|   -5.538706|   -5.973042|   -5.871681|   -5.656741|   -8.319038|    2.319893|
|          57|  5.3212e+00|   -5.315334|   -5.537364|   -5.972616|   -5.871265|   -5.655704|   -8.319197|    2.320165|
|          58|  5.3276e+00|   -5.314404|   -5.536039|   -5.972196|   -5.870855|   -5.654696|   -8.319360|    2.320437|
|          59|  5.3335e+00|   -5.313498|   -5.534726|   -5.971784|   -5.870447|   -5.653713|   -8.319527|    2.320709|
|          60|  5.3388e+00|   -5.312612|   -5.533425|   -5.971377|   -5.870046|   -5.652751|   -8.319697|    2.320981|
|          61|  5.3436e+00|   -5.311755|   -5.532143|   -5.970979|   -5.869644|   -5.651817|   -8.319871|    2.321254|
|          62|  5.3479e+00|   -5.310930|   -5.530885|   -5.970586|   -5.869240|   -5.650917|   -8.320049|    2.321527|
|          63|  5.3529e+00|   -5.310123|   -5.529641|   -5.970192|   -5.868833|   -5.650037|   -8.320229|    2.321800|
|          64|  5.3581e+00|   -5.309341|   -5.528414|   -5.969802|   -5.868423|   -5.649180|   -8.320414|    2.322073|
|          65|  5.3632e+00|   -5.308588|   -5.527208|   -5.969416|   -5.868007|   -5.648354|   -8.320602|    2.322346|
|          66|  5.3679e+00|   -5.307869|   -5.526024|   -5.969033|   -5.867589|   -5.647560|   -8.320794|    2.322620|
|          67|  5.3725e+00|   -5.307180|   -5.524863|   -5.968657|   -5.867164|   -5.646796|   -8.320989|    2.322893|
|          68|  5.3767e+00|   -5.306514|   -5.523716|   -5.968288|   -5.866728|   -5.646054|   -8.321187|    2.323167|
|          69|  5.3804e+00|   -5.305874|   -5.522590|   -5.967927|   -5.866278|   -5.645338|   -8.321390|    2.323441|
|          70|  5.3852e+00|   -5.305261|   -5.521486|   -5.967573|   -5.865819|   -5.644650|   -8.321595|    2.323715|
|          71|  5.3896e+00|   -5.304674|   -5.520407|   -5.967225|   -5.865352|   -5.643988|   -8.321804|    2.323990|
|          72|  5.3934e+00|   -5.304093|   -5.519347|   -5.966873|   -5.864875|   -5.643332|   -8.322017|    2.324264|
|          73|  5.3980e+00|   -5.303535|   -5.518308|   -5.966524|   -5.864392|   -5.642700|   -8.322233|    2.324538|
|          74|  5.4018e+00|   -5.302997|   -5.517292|   -5.966176|   -5.863900|   -5.642089|   -8.322453|    2.324813|
|          75|  5.4065e+00|   -5.302469|   -5.516289|   -5.965829|   -5.863398|   -5.641486|   -8.322676|    2.325087|
|          76|  5.4106e+00|   -5.301959|   -5.515300|   -5.965489|   -5.862887|   -5.640901|   -8.322903|    2.325362|
|          77|  5.4141e+00|   -5.301462|   -5.514329|   -5.965152|   -5.862376|   -5.640331|   -8.323133|    2.325637|
|          78|  5.4169e+00|   -5.300975|   -5.513370|   -5.964813|   -5.861856|   -5.639769|   -8.323366|    2.325912|
|          79|  5.4204e+00|   -5.300504|   -5.512426|   -5.964474|   -5.861328|   -5.639224|   -8.323603|    2.326186|
|          80|  5.4228e+00|   -5.300047|   -5.511498|   -5.964137|   -5.860797|   -5.638693|   -8.323843|    2.326461|
|          81|  5.4260e+00|   -5.299597|   -5.510574|   -5.963800|   -5.860265|   -5.638168|   -8.324087|    2.326736|
|          82|  5.4283e+00|   -5.299146|   -5.509654|   -5.963462|   -5.859735|   -5.637643|   -8.324334|    2.327011|
|          83|  5.4300e+00|   -5.298701|   -5.508738|   -5.963124|   -5.859200|   -5.637121|   -8.324585|    2.327286|
|          84|  5.4327e+00|   -5.298257|   -5.507826|   -5.962787|   -5.858658|   -5.636599|   -8.324839|    2.327562|
|          85|  5.4354e+00|   -5.297812|   -5.506918|   -5.962447|   -5.858116|   -5.636076|   -8.325096|    2.327837|
|          86|  5.4375e+00|   -5.297367|   -5.506007|   -5.962105|   -5.857580|   -5.635553|   -8.325357|    2.328112|
|          87|  5.4402e+00|   -5.296909|   -5.505092|   -5.961761|   -5.857046|   -5.635015|   -8.325621|    2.328387|
|          88|  5.4423e+00|   -5.296449|   -5.504181|   -5.961414|   -5.856520|   -5.634476|   -8.325888|    2.328662|
|          89|  5.4438e+00|   -5.295989|   -5.503273|   -5.961062|   -5.856001|   -5.633938|   -8.326159|    2.328938|
|          90|  5.4454e+00|   -5.295526|   -5.502366|   -5.960711|   -5.855492|   -5.633398|   -8.326433|    2.329213|
|          91|  5.4475e+00|   -5.295062|   -5.501456|   -5.960362|   -5.854990|   -5.632855|   -8.326711|    2.329488|
|          92|  5.4498e+00|   -5.294592|   -5.500542|   -5.960013|   -5.854490|   -5.632306|   -8.326992|    2.329763|
|          93|  5.4520e+00|   -5.294110|   -5.499616|   -5.959663|   -5.853987|   -5.631742|   -8.327276|    2.330039|
|          94|  5.4538e+00|   -5.293621|   -5.498682|   -5.959313|   -5.853490|   -5.631171|   -8.327564|    2.330314|
|          95|  5.4561e+00|   -5.293121|   -5.497734|   -5.958962|   -5.853002|   -5.630588|   -8.327855|    2.330589|
|          96|  5.4578e+00|   -5.292616|   -5.496782|   -5.958610|   -5.852524|   -5.630000|   -8.328149|    2.330865|
|          97|  5.4595e+00|   -5.292111|   -5.495827|   -5.958261|   -5.852060|   -5.629412|   -8.328446|    2.331140|
|          98|  5.4633e+00|   -5.291614|   -5.494875|   -5.957916|   -5.851616|   -5.628832|   -8.328747|    2.331416|
|          99|  5.4686e+00|   -5.291127|   -5.493925|   -5.957574|   -5.851187|   -5.628262|   -8.329051|    2.331691|
|         100|  5.4718e+00|   -5.290642|   -5.492976|   -5.957237|   -5.850766|   -5.627694|   -8.329358|    2.331966|
|         101|  5.4744e+00|   -5.290161|   -5.492028|   -5.956902|   -5.850351|   -5.627128|   -8.329668|    2.332242|
|         102|  5.4769e+00|   -5.289689|   -5.491084|   -5.956571|   -5.849941|   -5.626571|   -8.329981|    2.332517|
|         103|  5.4780e+00|   -5.289226|   -5.490141|   -5.956241|   -5.849535|   -5.626021|   -8.330298|    2.332792|
|         104|  5.4799e+00|   -5.288773|   -5.489204|   -5.955911|   -5.849136|   -5.625479|   -8.330618|    2.333068|
|         105|  5.4824e+00|   -5.288321|   -5.488269|   -5.955579|   -5.848735|   -5.624936|   -8.330941|    2.333343|
|         106|  5.4835e+00|   -5.287874|   -5.487342|   -5.955246|   -5.848332|   -5.624394|   -8.331267|    2.333618|
|         107|  5.4854e+00|   -5.287432|   -5.486420|   -5.954909|   -5.847929|   -5.623856|   -8.331596|    2.333893|
|         108|  5.4870e+00|   -5.286986|   -5.485498|   -5.954566|   -5.847519|   -5.623312|   -8.331928|    2.334169|
|         109|  5.4886e+00|   -5.286530|   -5.484572|   -5.954217|   -5.847102|   -5.622754|   -8.332264|    2.334444|
|         110|  5.4900e+00|   -5.286069|   -5.483640|   -5.953863|   -5.846680|   -5.622188|   -8.332602|    2.334719|
|         111|  5.4909e+00|   -5.285606|   -5.482709|   -5.953506|   -5.846253|   -5.621617|   -8.332944|    2.334994|
|         112|  5.4920e+00|   -5.285144|   -5.481781|   -5.953150|   -5.845824|   -5.621045|   -8.333289|    2.335269|
|         113|  5.4929e+00|   -5.284680|   -5.480851|   -5.952792|   -5.845395|   -5.620468|   -8.333636|    2.335544|
|         114|  5.4938e+00|   -5.284203|   -5.479915|   -5.952432|   -5.844959|   -5.619875|   -8.333987|    2.335820|
|         115|  5.4956e+00|   -5.283717|   -5.478978|   -5.952072|   -5.844526|   -5.619274|   -8.334341|    2.336094|
|         116|  5.4982e+00|   -5.283229|   -5.478042|   -5.951714|   -5.844096|   -5.618670|   -8.334698|    2.336369|
|         117|  5.5002e+00|   -5.282736|   -5.477102|   -5.951358|   -5.843667|   -5.618060|   -8.335057|    2.336644|
|         118|  5.5015e+00|   -5.282239|   -5.476156|   -5.951003|   -5.843241|   -5.617445|   -8.335420|    2.336919|
|         119|  5.5027e+00|   -5.281736|   -5.475205|   -5.950645|   -5.842818|   -5.616822|   -8.335786|    2.337194|
|         120|  5.5040e+00|   -5.281229|   -5.474252|   -5.950285|   -5.842401|   -5.616195|   -8.336155|    2.337469|
|         121|  5.5051e+00|   -5.280716|   -5.473295|   -5.949925|   -5.841990|   -5.615562|   -8.336526|    2.337743|
|         122|  5.5065e+00|   -5.280197|   -5.472335|   -5.949562|   -5.841583|   -5.614923|   -8.336901|    2.338018|
|         123|  5.5083e+00|   -5.279678|   -5.471377|   -5.949201|   -5.841179|   -5.614282|   -8.337278|    2.338292|
|         124|  5.5092e+00|   -5.279150|   -5.470415|   -5.948839|   -5.840773|   -5.613633|   -8.337659|    2.338566|
|         125|  5.5101e+00|   -5.278621|   -5.469454|   -5.948478|   -5.840372|   -5.612982|   -8.338042|    2.338841|
|         126|  5.5076e+00|   -5.278077|   -5.468487|   -5.948114|   -5.839968|   -5.612316|   -8.338429|    2.339115|
|         127|  5.5059e+00|   -5.277524|   -5.467516|   -5.947744|   -5.839569|   -5.611642|   -8.338818|    2.339389|
|         128|  5.5038e+00|   -5.276968|   -5.466543|   -5.947373|   -5.839186|   -5.610965|   -8.339210|    2.339663|
|         129|  5.5015e+00|   -5.276413|   -5.465569|   -5.947003|   -5.838811|   -5.610288|   -8.339605|    2.339936|
|         130|  5.4998e+00|   -5.275852|   -5.464591|   -5.946633|   -5.838440|   -5.609605|   -8.340002|    2.340210|
|         131|  5.4980e+00|   -5.275298|   -5.463617|   -5.946266|   -5.838075|   -5.608931|   -8.340403|    2.340484|
|         132|  5.4958e+00|   -5.274747|   -5.462645|   -5.945899|   -5.837714|   -5.608260|   -8.340806|    2.340757|
|         133|  5.4940e+00|   -5.274199|   -5.461674|   -5.945532|   -5.837354|   -5.607592|   -8.341212|    2.341030|
|         134|  5.4920e+00|   -5.273638|   -5.460693|   -5.945160|   -5.836979|   -5.606910|   -8.341621|    2.341303|
|         135|  5.4902e+00|   -5.273075|   -5.459707|   -5.944786|   -5.836605|   -5.606226|   -8.342032|    2.341576|
|         136|  5.4880e+00|   -5.272508|   -5.458719|   -5.944404|   -5.836227|   -5.605538|   -8.342447|    2.341849|
|         137|  5.4862e+00|   -5.271940|   -5.457729|   -5.944016|   -5.835860|   -5.604848|   -8.342864|    2.342122|
|         138|  5.4848e+00|   -5.271357|   -5.456730|   -5.943624|   -5.835496|   -5.604144|   -8.343283|    2.342394|
|         139|  5.4830e+00|   -5.270773|   -5.455728|   -5.943229|   -5.835144|   -5.603439|   -8.343705|    2.342666|
|         140|  5.4813e+00|   -5.270191|   -5.454726|   -5.942833|   -5.834802|   -5.602736|   -8.344130|    2.342938|
|         141|  5.4796e+00|   -5.269603|   -5.453716|   -5.942437|   -5.834470|   -5.602027|   -8.344558|    2.343210|
|         142|  5.4777e+00|   -5.269016|   -5.452704|   -5.942041|   -5.834152|   -5.601321|   -8.344988|    2.343482|
|         143|  5.4766e+00|   -5.268438|   -5.451695|   -5.941646|   -5.833849|   -5.600625|   -8.345421|    2.343753|
|         144|  5.4747e+00|   -5.267865|   -5.450691|   -5.941254|   -5.833557|   -5.599935|   -8.345856|    2.344025|
|         145|  5.4728e+00|   -5.267298|   -5.449689|   -5.940864|   -5.833267|   -5.599252|   -8.346294|    2.344296|
|         146|  5.4721e+00|   -5.266735|   -5.448688|   -5.940478|   -5.832987|   -5.598573|   -8.346735|    2.344567|
|         147|  5.4705e+00|   -5.266174|   -5.447685|   -5.940089|   -5.832709|   -5.597895|   -8.347178|    2.344837|
|         148|  5.4694e+00|   -5.265615|   -5.446682|   -5.939701|   -5.832436|   -5.597219|   -8.347623|    2.345108|
|         149|  5.4686e+00|   -5.265065|   -5.445681|   -5.939315|   -5.832173|   -5.596552|   -8.348071|    2.345378|
|         150|  5.4673e+00|   -5.264519|   -5.444681|   -5.938932|   -5.831918|   -5.595890|   -8.348522|    2.345648|
+-----------------------------------------------------------------------+
|        File Writing Summary       |              Filename             |
+-----------------------------------------------------------------------+
|SU2 binary restart                 |restart_flow.dat                   |
|Paraview                           |flow.vtu                           |
|Paraview surface                   |surface_flow.vtu                   |
+-----------------------------------------------------------------------+
+--------------------------------------------------------------------------------------------------------------------+
|  Inner_Iter|   Time(sec)|    rms[Rho]|   rms[RhoU]|   rms[RhoV]|   rms[RhoW]|   rms[RhoE]|     rms[nu]|          CD|
+--------------------------------------------------------------------------------------------------------------------+
|         151|  5.6126e+00|   -5.263980|   -5.443682|   -5.938551|   -5.831673|   -5.595236|   -8.348975|    2.345918|
|         152|  5.6112e+00|   -5.263444|   -5.442685|   -5.938171|   -5.831437|   -5.594585|   -8.349430|    2.346187|
|         153|  5.6098e+00|   -5.262912|   -5.441693|   -5.937792|   -5.831210|   -5.593940|   -8.349888|    2.346457|
|         154|  5.6083e+00|   -5.262385|   -5.440702|   -5.937415|   -5.830989|   -5.593299|   -8.350348|    2.346726|
|         155|  5.6066e+00|   -5.261866|   -5.439716|   -5.937039|   -5.830774|   -5.592666|   -8.350811|    2.346995|
|         156|  5.6042e+00|   -5.261351|   -5.438730|   -5.936662|   -5.830558|   -5.592036|   -8.351276|    2.347263|
|         157|  5.6021e+00|   -5.260838|   -5.437740|   -5.936286|   -5.830344|   -5.591405|   -8.351743|    2.347532|
|         158|  5.6002e+00|   -5.260336|   -5.436756|   -5.935912|   -5.830137|   -5.590786|   -8.352213|    2.347800|
|         159|  5.5983e+00|   -5.259828|   -5.435763|   -5.935536|   -5.829931|   -5.590158|   -8.352685|    2.348068|
|         160|  5.5969e+00|   -5.259323|   -5.434772|   -5.935158|   -5.829731|   -5.589534|   -8.353159|    2.348335|
|         161|  5.5957e+00|   -5.258820|   -5.433782|   -5.934783|   -5.829538|   -5.588911|   -8.353635|    2.348603|
|         162|  5.5940e+00|   -5.258320|   -5.432793|   -5.934410|   -5.829346|   -5.588289|   -8.354114|    2.348870|
|         163|  5.5923e+00|   -5.257820|   -5.431801|   -5.934037|   -5.829153|   -5.587666|   -8.354595|    2.349137|
|         164|  5.5905e+00|   -5.257321|   -5.430807|   -5.933664|   -5.828960|   -5.587042|   -8.355078|    2.349403|
|         165|  5.5884e+00|   -5.256826|   -5.429814|   -5.933292|   -5.828769|   -5.586421|   -8.355564|    2.349670|
|         166|  5.5863e+00|   -5.256335|   -5.428823|   -5.932921|   -5.828587|   -5.585803|   -8.356051|    2.349936|
|         167|  5.5849e+00|   -5.255845|   -5.427830|   -5.932548|   -5.828411|   -5.585183|   -8.356541|    2.350202|
|         168|  5.5826e+00|   -5.255352|   -5.426839|   -5.932173|   -5.828240|   -5.584560|   -8.357033|    2.350467|
|         169|  5.5803e+00|   -5.254855|   -5.425847|   -5.931794|   -5.828075|   -5.583932|   -8.357526|    2.350733|
|         170|  5.5781e+00|   -5.254364|   -5.424864|   -5.931418|   -5.827917|   -5.583311|   -8.358022|    2.350998|
|         171|  5.5762e+00|   -5.253880|   -5.423888|   -5.931043|   -5.827763|   -5.582696|   -8.358520|    2.351263|
|         172|  5.5744e+00|   -5.253407|   -5.422923|   -5.930671|   -5.827617|   -5.582092|   -8.359020|    2.351527|
|         173|  5.5728e+00|   -5.252938|   -5.421963|   -5.930299|   -5.827479|   -5.581493|   -8.359522|    2.351792|
|         174|  5.5707e+00|   -5.252467|   -5.421001|   -5.929927|   -5.827346|   -5.580890|   -8.360026|    2.352056|
|         175|  5.5688e+00|   -5.251993|   -5.420039|   -5.929556|   -5.827216|   -5.580283|   -8.360532|    2.352320|
|         176|  5.5667e+00|   -5.251521|   -5.419081|   -5.929184|   -5.827093|   -5.579678|   -8.361039|    2.352583|
|         177|  5.5651e+00|   -5.251055|   -5.418131|   -5.928815|   -5.826982|   -5.579080|   -8.361549|    2.352847|
|         178|  5.5633e+00|   -5.250594|   -5.417189|   -5.928450|   -5.826875|   -5.578487|   -8.362061|    2.353110|
|         179|  5.5614e+00|   -5.250132|   -5.416247|   -5.928086|   -5.826771|   -5.577890|   -8.362574|    2.353373|
|         180|  5.5601e+00|   -5.249672|   -5.415311|   -5.927725|   -5.826675|   -5.577297|   -8.363089|    2.353636|
|         181|  5.5582e+00|   -5.249217|   -5.414385|   -5.927366|   -5.826580|   -5.576708|   -8.363606|    2.353898|
|         182|  5.5564e+00|   -5.248765|   -5.413470|   -5.927009|   -5.826483|   -5.576123|   -8.364124|    2.354160|
|         183|  5.5548e+00|   -5.248313|   -5.412561|   -5.926651|   -5.826384|   -5.575538|   -8.364645|    2.354422|
|         184|  5.5539e+00|   -5.247868|   -5.411664|   -5.926298|   -5.826288|   -5.574959|   -8.365167|    2.354684|
|         185|  5.5526e+00|   -5.247421|   -5.410770|   -5.925947|   -5.826189|   -5.574380|   -8.365690|    2.354946|
|         186|  5.5507e+00|   -5.246968|   -5.409876|   -5.925595|   -5.826084|   -5.573794|   -8.366216|    2.355207|
|         187|  5.5491e+00|   -5.246522|   -5.408993|   -5.925248|   -5.825978|   -5.573216|   -8.366743|    2.355468|
|         188|  5.5474e+00|   -5.246088|   -5.408121|   -5.924906|   -5.825873|   -5.572650|   -8.367271|    2.355729|
|         189|  5.5458e+00|   -5.245657|   -5.407258|   -5.924565|   -5.825768|   -5.572089|   -8.367801|    2.355990|
|         190|  5.5443e+00|   -5.245223|   -5.406395|   -5.924225|   -5.825662|   -5.571524|   -8.368333|    2.356250|
|         191|  5.5428e+00|   -5.244787|   -5.405537|   -5.923887|   -5.825556|   -5.570957|   -8.368866|    2.356511|
|         192|  5.5414e+00|   -5.244351|   -5.404685|   -5.923553|   -5.825450|   -5.570391|   -8.369400|    2.356771|
|         193|  5.5401e+00|   -5.243918|   -5.403835|   -5.923222|   -5.825342|   -5.569827|   -8.369936|    2.357030|
|         194|  5.5385e+00|   -5.243486|   -5.402988|   -5.922895|   -5.825233|   -5.569264|   -8.370473|    2.357290|
|         195|  5.5369e+00|   -5.243056|   -5.402146|   -5.922573|   -5.825123|   -5.568703|   -8.371011|    2.357549|
|         196|  5.5353e+00|   -5.242622|   -5.401304|   -5.922254|   -5.825009|   -5.568138|   -8.371551|    2.357809|
|         197|  5.5339e+00|   -5.242187|   -5.400464|   -5.921935|   -5.824899|   -5.567573|   -8.372092|    2.358068|
|         198|  5.5325e+00|   -5.241756|   -5.399630|   -5.921614|   -5.824794|   -5.567012|   -8.372635|    2.358326|
|         199|  5.5312e+00|   -5.241326|   -5.398798|   -5.921293|   -5.824694|   -5.566454|   -8.373178|    2.358585|
|         200|  5.5298e+00|   -5.240894|   -5.397967|   -5.920974|   -5.824597|   -5.565896|   -8.373723|    2.358843|
|         201|  5.5286e+00|   -5.240459|   -5.397135|   -5.920654|   -5.824501|   -5.565336|   -8.374269|    2.359102|
|         202|  5.5280e+00|   -5.240025|   -5.396307|   -5.920333|   -5.824412|   -5.564779|   -8.374816|    2.359360|
|         203|  5.5274e+00|   -5.239597|   -5.395485|   -5.920016|   -5.824332|   -5.564229|   -8.375364|    2.359618|
|         204|  5.5267e+00|   -5.239179|   -5.394672|   -5.919703|   -5.824260|   -5.563692|   -8.375913|    2.359875|
|         205|  5.5255e+00|   -5.238767|   -5.393862|   -5.919392|   -5.824196|   -5.563161|   -8.376463|    2.360133|
|         206|  5.5246e+00|   -5.238361|   -5.393055|   -5.919082|   -5.824135|   -5.562637|   -8.377014|    2.360390|
|         207|  5.5234e+00|   -5.237968|   -5.392259|   -5.918778|   -5.824081|   -5.562127|   -8.377566|    2.360647|
|         208|  5.5219e+00|   -5.237586|   -5.391471|   -5.918477|   -5.824032|   -5.561627|   -8.378119|    2.360904|
|         209|  5.5208e+00|   -5.237205|   -5.390686|   -5.918178|   -5.823984|   -5.561129|   -8.378672|    2.361161|
|         210|  5.5194e+00|   -5.236827|   -5.389903|   -5.917881|   -5.823940|   -5.560634|   -8.379227|    2.361417|
|         211|  5.5179e+00|   -5.236453|   -5.389127|   -5.917583|   -5.823902|   -5.560146|   -8.379782|    2.361674|
|         212|  5.5164e+00|   -5.236085|   -5.388356|   -5.917285|   -5.823870|   -5.559663|   -8.380338|    2.361930|
|         213|  5.5150e+00|   -5.235718|   -5.387588|   -5.916986|   -5.823841|   -5.559181|   -8.380895|    2.362186|
|         214|  5.5136e+00|   -5.235347|   -5.386821|   -5.916680|   -5.823815|   -5.558695|   -8.381452|    2.362442|
|         215|  5.5125e+00|   -5.234981|   -5.386060|   -5.916373|   -5.823798|   -5.558216|   -8.382010|    2.362698|
|         216|  5.5114e+00|   -5.234625|   -5.385310|   -5.916069|   -5.823783|   -5.557749|   -8.382568|    2.362953|
|         217|  5.5101e+00|   -5.234273|   -5.384562|   -5.915766|   -5.823770|   -5.557286|   -8.383127|    2.363209|
|         218|  5.5089e+00|   -5.233928|   -5.383821|   -5.915465|   -5.823756|   -5.556831|   -8.383687|    2.363464|
|         219|  5.5076e+00|   -5.233590|   -5.383084|   -5.915167|   -5.823743|   -5.556383|   -8.384247|    2.363719|
|         220|  5.5063e+00|   -5.233257|   -5.382349|   -5.914870|   -5.823730|   -5.555938|   -8.384807|    2.363974|
|         221|  5.5050e+00|   -5.232925|   -5.381615|   -5.914577|   -5.823719|   -5.555495|   -8.385367|    2.364228|
|         222|  5.5040e+00|   -5.232595|   -5.380884|   -5.914286|   -5.823713|   -5.555055|   -8.385928|    2.364483|
|         223|  5.5028e+00|   -5.232272|   -5.380157|   -5.913999|   -5.823711|   -5.554622|   -8.386489|    2.364737|
|         224|  5.5016e+00|   -5.231952|   -5.379433|   -5.913716|   -5.823711|   -5.554191|   -8.387050|    2.364991|
|         225|  5.5005e+00|   -5.231641|   -5.378717|   -5.913435|   -5.823713|   -5.553768|   -8.387612|    2.365245|
|         226|  5.4992e+00|   -5.231333|   -5.378007|   -5.913152|   -5.823716|   -5.553350|   -8.388173|    2.365499|
|         227|  5.4980e+00|   -5.231028|   -5.377299|   -5.912870|   -5.823721|   -5.552933|   -8.388734|    2.365752|
|         228|  5.4969e+00|   -5.230730|   -5.376596|   -5.912596|   -5.823725|   -5.552524|   -8.389296|    2.366005|
|         229|  5.4958e+00|   -5.230437|   -5.375896|   -5.912328|   -5.823730|   -5.552120|   -8.389857|    2.366258|
|         230|  5.4949e+00|   -5.230149|   -5.375200|   -5.912066|   -5.823740|   -5.551722|   -8.390419|    2.366511|
|         231|  5.4942e+00|   -5.229869|   -5.374510|   -5.911808|   -5.823755|   -5.551332|   -8.390980|    2.366764|
|         232|  5.4932e+00|   -5.229591|   -5.373822|   -5.911550|   -5.823771|   -5.550943|   -8.391541|    2.367016|
|         233|  5.4920e+00|   -5.229320|   -5.373140|   -5.911298|   -5.823789|   -5.550560|   -8.392102|    2.367268|
|         234|  5.4910e+00|   -5.229050|   -5.372463|   -5.911049|   -5.823804|   -5.550179|   -8.392662|    2.367520|
|         235|  5.4898e+00|   -5.228780|   -5.371786|   -5.910801|   -5.823818|   -5.549796|   -8.393223|    2.367772|
|         236|  5.4888e+00|   -5.228515|   -5.371112|   -5.910555|   -5.823831|   -5.549418|   -8.393783|    2.368023|
|         237|  5.4877e+00|   -5.228251|   -5.370440|   -5.910309|   -5.823847|   -5.549040|   -8.394342|    2.368274|
|         238|  5.4867e+00|   -5.227987|   -5.369771|   -5.910063|   -5.823862|   -5.548661|   -8.394901|    2.368525|
|         239|  5.4859e+00|   -5.227728|   -5.369106|   -5.909819|   -5.823878|   -5.548287|   -8.395459|    2.368775|
|         240|  5.4849e+00|   -5.227470|   -5.368445|   -5.909577|   -5.823893|   -5.547914|   -8.396017|    2.369025|
|         241|  5.4837e+00|   -5.227211|   -5.367784|   -5.909334|   -5.823906|   -5.547538|   -8.396574|    2.369275|
|         242|  5.4827e+00|   -5.226954|   -5.367126|   -5.909090|   -5.823918|   -5.547163|   -8.397130|    2.369524|
|         243|  5.4817e+00|   -5.226702|   -5.366474|   -5.908849|   -5.823931|   -5.546792|   -8.397686|    2.369773|
|         244|  5.4806e+00|   -5.226450|   -5.365824|   -5.908606|   -5.823942|   -5.546420|   -8.398241|    2.370022|
|         245|  5.4797e+00|   -5.226193|   -5.365175|   -5.908357|   -5.823950|   -5.546042|   -8.398795|    2.370270|
|         246|  5.4787e+00|   -5.225933|   -5.364525|   -5.908105|   -5.823960|   -5.545659|   -8.399348|    2.370518|
|         247|  5.4776e+00|   -5.225668|   -5.363874|   -5.907851|   -5.823974|   -5.545272|   -8.399900|    2.370766|
|         248|  5.4767e+00|   -5.225402|   -5.363222|   -5.907594|   -5.823989|   -5.544883|   -8.400451|    2.371013|
|         249|  5.4756e+00|   -5.225132|   -5.362570|   -5.907336|   -5.824002|   -5.544488|   -8.401000|    2.371260|
|         250|  5.4746e+00|   -5.224854|   -5.361912|   -5.907077|   -5.824010|   -5.544085|   -8.401549|    2.371507|
|         251|  5.4737e+00|   -5.224569|   -5.361252|   -5.906815|   -5.824022|   -5.543675|   -8.402097|    2.371753|
|         252|  5.4726e+00|   -5.224283|   -5.360592|   -5.906551|   -5.824039|   -5.543263|   -8.402643|    2.371998|
|         253|  5.4718e+00|   -5.223994|   -5.359931|   -5.906283|   -5.824061|   -5.542848|   -8.403188|    2.372243|
|         254|  5.4710e+00|   -5.223701|   -5.359271|   -5.906013|   -5.824085|   -5.542429|   -8.403731|    2.372488|
|         255|  5.4699e+00|   -5.223404|   -5.358608|   -5.905740|   -5.824112|   -5.542006|   -8.404273|    2.372732|
|         256|  5.4690e+00|   -5.223102|   -5.357942|   -5.905467|   -5.824139|   -5.541578|   -8.404813|    2.372976|
|         257|  5.4681e+00|   -5.222799|   -5.357277|   -5.905190|   -5.824169|   -5.541147|   -8.405352|    2.373219|
|         258|  5.4672e+00|   -5.222491|   -5.356610|   -5.904910|   -5.824201|   -5.540713|   -8.405889|    2.373462|
|         259|  5.4663e+00|   -5.222173|   -5.355935|   -5.904625|   -5.824234|   -5.540268|   -8.406425|    2.373704|
|         260|  5.4653e+00|   -5.221848|   -5.355259|   -5.904335|   -5.824270|   -5.539817|   -8.406959|    2.373946|
|         261|  5.4644e+00|   -5.221525|   -5.354586|   -5.904044|   -5.824313|   -5.539367|   -8.407490|    2.374187|
|         262|  5.4637e+00|   -5.221204|   -5.353917|   -5.903751|   -5.824358|   -5.538920|   -8.408020|    2.374428|
|         263|  5.4630e+00|   -5.220876|   -5.353245|   -5.903452|   -5.824404|   -5.538467|   -8.408548|    2.374668|
|         264|  5.4625e+00|   -5.220548|   -5.352577|   -5.903149|   -5.824452|   -5.538015|   -8.409074|    2.374908|
|         265|  5.4615e+00|   -5.220218|   -5.351909|   -5.902842|   -5.824503|   -5.537560|   -8.409598|    2.375147|
|         266|  5.4610e+00|   -5.219881|   -5.351239|   -5.902529|   -5.824554|   -5.537099|   -8.410119|    2.375386|
|         267|  5.4601e+00|   -5.219540|   -5.350567|   -5.902212|   -5.824602|   -5.536633|   -8.410639|    2.375624|
|         268|  5.4592e+00|   -5.219197|   -5.349897|   -5.901894|   -5.824654|   -5.536166|   -8.411156|    2.375862|
|         269|  5.4584e+00|   -5.218853|   -5.349228|   -5.901575|   -5.824706|   -5.535698|   -8.411670|    2.376099|
|         270|  5.4574e+00|   -5.218502|   -5.348556|   -5.901253|   -5.824758|   -5.535223|   -8.412182|    2.376335|
|         271|  5.4565e+00|   -5.218147|   -5.347883|   -5.900929|   -5.824812|   -5.534745|   -8.412692|    2.376571|
|         272|  5.4560e+00|   -5.217787|   -5.347208|   -5.900602|   -5.824869|   -5.534261|   -8.413199|    2.376807|
|         273|  5.4556e+00|   -5.217424|   -5.346532|   -5.900271|   -5.824929|   -5.533775|   -8.413704|    2.377041|
|         274|  5.4548e+00|   -5.217056|   -5.345855|   -5.899940|   -5.824990|   -5.533284|   -8.414205|    2.377276|
|         275|  5.4540e+00|   -5.216686|   -5.345177|   -5.899607|   -5.825052|   -5.532792|   -8.414704|    2.377509|
|         276|  5.4533e+00|   -5.216312|   -5.344499|   -5.899273|   -5.825113|   -5.532297|   -8.415200|    2.377743|
|         277|  5.4526e+00|   -5.215932|   -5.343819|   -5.898940|   -5.825173|   -5.531796|   -8.415693|    2.377975|
|         278|  5.4520e+00|   -5.215548|   -5.343137|   -5.898607|   -5.825238|   -5.531293|   -8.416183|    2.378207|
|         279|  5.4512e+00|   -5.215161|   -5.342454|   -5.898272|   -5.825306|   -5.530787|   -8.416669|    2.378439|
|         280|  5.4506e+00|   -5.214773|   -5.341771|   -5.897939|   -5.825374|   -5.530281|   -8.417153|    2.378670|
|         281|  5.4500e+00|   -5.214383|   -5.341088|   -5.897604|   -5.825442|   -5.529774|   -8.417633|    2.378901|
|         282|  5.4493e+00|   -5.213989|   -5.340403|   -5.897270|   -5.825511|   -5.529264|   -8.418110|    2.379131|
|         283|  5.4485e+00|   -5.213592|   -5.339717|   -5.896934|   -5.825579|   -5.528752|   -8.418584|    2.379360|
|         284|  5.4479e+00|   -5.213195|   -5.339032|   -5.896597|   -5.825649|   -5.528240|   -8.419054|    2.379589|
|         285|  5.4470e+00|   -5.212796|   -5.338348|   -5.896259|   -5.825717|   -5.527727|   -8.419521|    2.379817|
|         286|  5.4462e+00|   -5.212400|   -5.337667|   -5.895922|   -5.825784|   -5.527218|   -8.419984|    2.380045|
|         287|  5.4453e+00|   -5.212004|   -5.336988|   -5.895584|   -5.825850|   -5.526709|   -8.420443|    2.380273|
|         288|  5.4445e+00|   -5.211607|   -5.336309|   -5.895245|   -5.825915|   -5.526200|   -8.420899|    2.380500|
|         289|  5.4438e+00|   -5.211208|   -5.335630|   -5.894903|   -5.825978|   -5.525689|   -8.421350|    2.380726|
|         290|  5.4433e+00|   -5.210807|   -5.334950|   -5.894560|   -5.826037|   -5.525177|   -8.421798|    2.380952|
|         291|  5.4427e+00|   -5.210402|   -5.334269|   -5.894214|   -5.826093|   -5.524661|   -8.422242|    2.381177|
|         292|  5.4421e+00|   -5.209996|   -5.333589|   -5.893865|   -5.826146|   -5.524144|   -8.422681|    2.381402|
|         293|  5.4415e+00|   -5.209589|   -5.332910|   -5.893513|   -5.826195|   -5.523627|   -8.423117|    2.381627|
|         294|  5.4410e+00|   -5.209177|   -5.332229|   -5.893157|   -5.826240|   -5.523106|   -8.423548|    2.381851|
|         295|  5.4403e+00|   -5.208762|   -5.331546|   -5.892796|   -5.826280|   -5.522582|   -8.423975|    2.382074|
|         296|  5.4397e+00|   -5.208343|   -5.330859|   -5.892431|   -5.826315|   -5.522053|   -8.424397|    2.382297|
|         297|  5.4391e+00|   -5.207919|   -5.330172|   -5.892062|   -5.826344|   -5.521521|   -8.424815|    2.382520|
|         298|  5.4386e+00|   -5.207489|   -5.329481|   -5.891691|   -5.826372|   -5.520983|   -8.425229|    2.382742|
|         299|  5.4381e+00|   -5.207055|   -5.328787|   -5.891318|   -5.826398|   -5.520441|   -8.425637|    2.382964|
|         300|  5.4374e+00|   -5.206614|   -5.328088|   -5.890942|   -5.826423|   -5.519893|   -8.426042|    2.383185|
+-----------------------------------------------------------------------+
|        File Writing Summary       |              Filename             |
+-----------------------------------------------------------------------+
|SU2 binary restart                 |restart_flow.dat                   |
|Paraview                           |flow.vtu                           |
|Paraview surface                   |surface_flow.vtu                   |
+-----------------------------------------------------------------------+
+--------------------------------------------------------------------------------------------------------------------+
|  Inner_Iter|   Time(sec)|    rms[Rho]|   rms[RhoU]|   rms[RhoV]|   rms[RhoW]|   rms[RhoE]|     rms[nu]|          CD|
+--------------------------------------------------------------------------------------------------------------------+
|         301|  5.5095e+00|   -5.206165|   -5.327382|   -5.890564|   -5.826443|   -5.519336|   -8.426441|    2.383406|
|         302|  5.5104e+00|   -5.205714|   -5.326676|   -5.890184|   -5.826461|   -5.518778|   -8.426836|    2.383627|
|         303|  5.5109e+00|   -5.205259|   -5.325965|   -5.889804|   -5.826478|   -5.518216|   -8.427225|    2.383847|
|         304|  5.5109e+00|   -5.204797|   -5.325250|   -5.889421|   -5.826498|   -5.517650|   -8.427610|    2.384066|
|         305|  5.5108e+00|   -5.204331|   -5.324531|   -5.889033|   -5.826521|   -5.517079|   -8.427989|    2.384286|
|         306|  5.5100e+00|   -5.203861|   -5.323809|   -5.888640|   -5.826545|   -5.516505|   -8.428364|    2.384504|
|         307|  5.5093e+00|   -5.203392|   -5.323088|   -5.888245|   -5.826572|   -5.515932|   -8.428733|    2.384723|
|         308|  5.5083e+00|   -5.202920|   -5.322366|   -5.887850|   -5.826600|   -5.515358|   -8.429097|    2.384941|
|         309|  5.5077e+00|   -5.202445|   -5.321641|   -5.887454|   -5.826628|   -5.514781|   -8.429455|    2.385158|
|         310|  5.5070e+00|   -5.201964|   -5.320911|   -5.887056|   -5.826652|   -5.514200|   -8.429809|    2.385376|
|         311|  5.5060e+00|   -5.201479|   -5.320177|   -5.886657|   -5.826676|   -5.513614|   -8.430157|    2.385592|
|         312|  5.5050e+00|   -5.200991|   -5.319442|   -5.886254|   -5.826702|   -5.513026|   -8.430499|    2.385809|
|         313|  5.5039e+00|   -5.200502|   -5.318706|   -5.885851|   -5.826730|   -5.512437|   -8.430836|    2.386025|
|         314|  5.5033e+00|   -5.200015|   -5.317971|   -5.885450|   -5.826760|   -5.511852|   -8.431167|    2.386240|
|         315|  5.5028e+00|   -5.199529|   -5.317237|   -5.885048|   -5.826789|   -5.511268|   -8.431492|    2.386455|
|         316|  5.5020e+00|   -5.199041|   -5.316503|   -5.884648|   -5.826815|   -5.510683|   -8.431812|    2.386670|
|         317|  5.5010e+00|   -5.198551|   -5.315768|   -5.884247|   -5.826837|   -5.510097|   -8.432126|    2.386885|
|         318|  5.5000e+00|   -5.198065|   -5.315035|   -5.883846|   -5.826860|   -5.509514|   -8.432433|    2.387098|
|         319|  5.4992e+00|   -5.197576|   -5.314300|   -5.883443|   -5.826879|   -5.508929|   -8.432735|    2.387312|
|         320|  5.4985e+00|   -5.197083|   -5.313563|   -5.883040|   -5.826894|   -5.508340|   -8.433031|    2.387525|
|         321|  5.4978e+00|   -5.196585|   -5.312825|   -5.882632|   -5.826901|   -5.507745|   -8.433320|    2.387738|
|         322|  5.4973e+00|   -5.196085|   -5.312087|   -5.882224|   -5.826904|   -5.507151|   -8.433604|    2.387950|
|         323|  5.4965e+00|   -5.195587|   -5.311352|   -5.881815|   -5.826905|   -5.506558|   -8.433881|    2.388162|
|         324|  5.4957e+00|   -5.195085|   -5.310614|   -5.881406|   -5.826900|   -5.505962|   -8.434152|    2.388373|
|         325|  5.4952e+00|   -5.194583|   -5.309877|   -5.880998|   -5.826890|   -5.505367|   -8.434416|    2.388584|
|         326|  5.4945e+00|   -5.194079|   -5.309138|   -5.880590|   -5.826879|   -5.504769|   -8.434674|    2.388794|
|         327|  5.4937e+00|   -5.193573|   -5.308399|   -5.880181|   -5.826865|   -5.504172|   -8.434926|    2.389004|
|         328|  5.4932e+00|   -5.193067|   -5.307662|   -5.879770|   -5.826851|   -5.503575|   -8.435171|    2.389214|
|         329|  5.4926e+00|   -5.192558|   -5.306924|   -5.879361|   -5.826833|   -5.502976|   -8.435409|    2.389423|
|         330|  5.4920e+00|   -5.192045|   -5.306186|   -5.878951|   -5.826809|   -5.502375|   -8.435641|    2.389632|
|         331|  5.4911e+00|   -5.191530|   -5.305447|   -5.878541|   -5.826782|   -5.501771|   -8.435866|    2.389840|
|         332|  5.4905e+00|   -5.191016|   -5.304711|   -5.878132|   -5.826752|   -5.501168|   -8.436084|    2.390047|
|         333|  5.4896e+00|   -5.190502|   -5.303975|   -5.877721|   -5.826721|   -5.500567|   -8.436296|    2.390254|
|         334|  5.4889e+00|   -5.189990|   -5.303241|   -5.877310|   -5.826690|   -5.499969|   -8.436500|    2.390461|
|         335|  5.4882e+00|   -5.189476|   -5.302510|   -5.876896|   -5.826651|   -5.499369|   -8.436698|    2.390667|
|         336|  5.4874e+00|   -5.188960|   -5.301781|   -5.876482|   -5.826604|   -5.498768|   -8.436888|    2.390873|
|         337|  5.4867e+00|   -5.188442|   -5.301051|   -5.876066|   -5.826553|   -5.498165|   -8.437072|    2.391078|
|         338|  5.4859e+00|   -5.187925|   -5.300323|   -5.875648|   -5.826497|   -5.497563|   -8.437248|    2.391282|
|         339|  5.4850e+00|   -5.187408|   -5.299599|   -5.875228|   -5.826435|   -5.496962|   -8.437417|    2.391486|
|         340|  5.4841e+00|   -5.186892|   -5.298876|   -5.874806|   -5.826371|   -5.496363|   -8.437579|    2.391690|
|         341|  5.4834e+00|   -5.186378|   -5.298159|   -5.874382|   -5.826301|   -5.495766|   -8.437733|    2.391893|
|         342|  5.4827e+00|   -5.185864|   -5.297444|   -5.873954|   -5.826220|   -5.495170|   -8.437880|    2.392095|
|         343|  5.4821e+00|   -5.185349|   -5.296732|   -5.873524|   -5.826131|   -5.494574|   -8.438019|    2.392297|
|         344|  5.4817e+00|   -5.184835|   -5.296022|   -5.873088|   -5.826034|   -5.493978|   -8.438151|    2.392498|
|         345|  5.4809e+00|   -5.184321|   -5.295315|   -5.872653|   -5.825927|   -5.493383|   -8.438275|    2.392699|
|         346|  5.4802e+00|   -5.183811|   -5.294615|   -5.872216|   -5.825816|   -5.492794|   -8.438392|    2.392899|
|         347|  5.4794e+00|   -5.183303|   -5.293919|   -5.871774|   -5.825697|   -5.492208|   -8.438501|    2.393099|
|         348|  5.4788e+00|   -5.182795|   -5.293226|   -5.871329|   -5.825571|   -5.491622|   -8.438603|    2.393298|
|         349|  5.4783e+00|   -5.182289|   -5.292537|   -5.870881|   -5.825438|   -5.491038|   -8.438697|    2.393496|
|         350|  5.4777e+00|   -5.181783|   -5.291850|   -5.870431|   -5.825298|   -5.490457|   -8.438782|    2.393694|
|         351|  5.4770e+00|   -5.181278|   -5.291164|   -5.869978|   -5.825150|   -5.489875|   -8.438860|    2.393892|
|         352|  5.4763e+00|   -5.180771|   -5.290479|   -5.869522|   -5.824993|   -5.489292|   -8.438931|    2.394088|
|         353|  5.4755e+00|   -5.180261|   -5.289795|   -5.869063|   -5.824825|   -5.488706|   -8.438993|    2.394285|
|         354|  5.4747e+00|   -5.179748|   -5.289111|   -5.868601|   -5.824649|   -5.488117|   -8.439047|    2.394480|
|         355|  5.4740e+00|   -5.179232|   -5.288426|   -5.868136|   -5.824462|   -5.487526|   -8.439093|    2.394675|
|         356|  5.4733e+00|   -5.178711|   -5.287740|   -5.867666|   -5.824267|   -5.486929|   -8.439131|    2.394870|
|         357|  5.4727e+00|   -5.178185|   -5.287052|   -5.867193|   -5.824065|   -5.486328|   -8.439161|    2.395064|
|         358|  5.4719e+00|   -5.177656|   -5.286363|   -5.866718|   -5.823857|   -5.485724|   -8.439183|    2.395257|
|         359|  5.4713e+00|   -5.177120|   -5.285668|   -5.866238|   -5.823642|   -5.485114|   -8.439197|    2.395450|
|         360|  5.4706e+00|   -5.176580|   -5.284972|   -5.865757|   -5.823420|   -5.484500|   -8.439202|    2.395642|
|         361|  5.4701e+00|   -5.176035|   -5.284273|   -5.865273|   -5.823188|   -5.483881|   -8.439200|    2.395834|
|         362|  5.4695e+00|   -5.175484|   -5.283571|   -5.864787|   -5.822949|   -5.483256|   -8.439189|    2.396025|
|         363|  5.4689e+00|   -5.174928|   -5.282864|   -5.864299|   -5.822705|   -5.482627|   -8.439170|    2.396215|
|         364|  5.4682e+00|   -5.174367|   -5.282154|   -5.863808|   -5.822455|   -5.481993|   -8.439142|    2.396405|
|         365|  5.4677e+00|   -5.173802|   -5.281442|   -5.863315|   -5.822197|   -5.481355|   -8.439107|    2.396595|
|         366|  5.4670e+00|   -5.173234|   -5.280728|   -5.862821|   -5.821934|   -5.480715|   -8.439062|    2.396784|
|         367|  5.4664e+00|   -5.172658|   -5.280009|   -5.862323|   -5.821665|   -5.480067|   -8.439010|    2.396972|
|         368|  5.4659e+00|   -5.172079|   -5.279287|   -5.861824|   -5.821393|   -5.479416|   -8.438949|    2.397160|
|         369|  5.4651e+00|   -5.171497|   -5.278563|   -5.861323|   -5.821118|   -5.478763|   -8.438879|    2.397348|
|         370|  5.4645e+00|   -5.170911|   -5.277836|   -5.860819|   -5.820836|   -5.478105|   -8.438802|    2.397535|
|         371|  5.4637e+00|   -5.170318|   -5.277104|   -5.860312|   -5.820546|   -5.477440|   -8.438715|    2.397721|
|         372|  5.4631e+00|   -5.169726|   -5.276372|   -5.859805|   -5.820251|   -5.476777|   -8.438621|    2.397907|
|         373|  5.4625e+00|   -5.169132|   -5.275641|   -5.859293|   -5.819949|   -5.476112|   -8.438517|    2.398093|
|         374|  5.4620e+00|   -5.168537|   -5.274908|   -5.858778|   -5.819640|   -5.475446|   -8.438406|    2.398278|
|         375|  5.4614e+00|   -5.167939|   -5.274175|   -5.858263|   -5.819320|   -5.474778|   -8.438285|    2.398462|
|         376|  5.4607e+00|   -5.167337|   -5.273440|   -5.857746|   -5.818992|   -5.474105|   -8.438156|    2.398646|
|         377|  5.4601e+00|   -5.166732|   -5.272703|   -5.857230|   -5.818657|   -5.473430|   -8.438019|    2.398830|
|         378|  5.4596e+00|   -5.166128|   -5.271966|   -5.856713|   -5.818316|   -5.472756|   -8.437873|    2.399013|
|         379|  5.4590e+00|   -5.165523|   -5.271231|   -5.856194|   -5.817969|   -5.472080|   -8.437718|    2.399196|
|         380|  5.4583e+00|   -5.164915|   -5.270496|   -5.855674|   -5.817615|   -5.471403|   -8.437555|    2.399378|
|         381|  5.4577e+00|   -5.164307|   -5.269761|   -5.855154|   -5.817257|   -5.470726|   -8.437383|    2.399560|
|         382|  5.4570e+00|   -5.163697|   -5.269026|   -5.854633|   -5.816891|   -5.470047|   -8.437202|    2.399742|
|         383|  5.4563e+00|   -5.163084|   -5.268290|   -5.854110|   -5.816515|   -5.469363|   -8.437013|    2.399923|
|         384|  5.4559e+00|   -5.162470|   -5.267554|   -5.853585|   -5.816132|   -5.468679|   -8.436815|    2.400104|
|         385|  5.4555e+00|   -5.161856|   -5.266820|   -5.853059|   -5.815742|   -5.467995|   -8.436608|    2.400284|
|         386|  5.4550e+00|   -5.161241|   -5.266085|   -5.852534|   -5.815344|   -5.467311|   -8.436393|    2.400464|
|         387|  5.4544e+00|   -5.160625|   -5.265350|   -5.852010|   -5.814937|   -5.466626|   -8.436168|    2.400643|
|         388|  5.4538e+00|   -5.160006|   -5.264612|   -5.851484|   -5.814521|   -5.465936|   -8.435935|    2.400822|
|         389|  5.4533e+00|   -5.159383|   -5.263875|   -5.850953|   -5.814099|   -5.465244|   -8.435694|    2.401001|
|         390|  5.4529e+00|   -5.158756|   -5.263135|   -5.850419|   -5.813668|   -5.464547|   -8.435444|    2.401179|
|         391|  5.4524e+00|   -5.158127|   -5.262394|   -5.849881|   -5.813229|   -5.463846|   -8.435185|    2.401357|
|         392|  5.4519e+00|   -5.157496|   -5.261653|   -5.849341|   -5.812783|   -5.463144|   -8.434917|    2.401535|
|         393|  5.4513e+00|   -5.156859|   -5.260908|   -5.848798|   -5.812329|   -5.462437|   -8.434641|    2.401712|
|         394|  5.4507e+00|   -5.156216|   -5.260159|   -5.848252|   -5.811865|   -5.461722|   -8.434356|    2.401889|
|         395|  5.4501e+00|   -5.155568|   -5.259407|   -5.847707|   -5.811396|   -5.461002|   -8.434063|    2.402065|
|         396|  5.4497e+00|   -5.154919|   -5.258657|   -5.847161|   -5.810920|   -5.460282|   -8.433761|    2.402241|
|         397|  5.4493e+00|   -5.154265|   -5.257903|   -5.846612|   -5.810438|   -5.459556|   -8.433450|    2.402417|
|         398|  5.4487e+00|   -5.153607|   -5.257147|   -5.846063|   -5.809949|   -5.458827|   -8.433131|    2.402592|
|         399|  5.4481e+00|   -5.152947|   -5.256389|   -5.845513|   -5.809456|   -5.458096|   -8.432802|    2.402767|
|         400|  5.4476e+00|   -5.152287|   -5.255632|   -5.844963|   -5.808960|   -5.457367|   -8.432466|    2.402941|
|         401|  5.4471e+00|   -5.151627|   -5.254874|   -5.844413|   -5.808463|   -5.456637|   -8.432121|    2.403115|
|         402|  5.4465e+00|   -5.150965|   -5.254114|   -5.843861|   -5.807963|   -5.455905|   -8.431768|    2.403289|
|         403|  5.4459e+00|   -5.150298|   -5.253352|   -5.843307|   -5.807456|   -5.455168|   -8.431406|    2.403462|
|         404|  5.4454e+00|   -5.149630|   -5.252588|   -5.842754|   -5.806946|   -5.454429|   -8.431036|    2.403635|
|         405|  5.4449e+00|   -5.148959|   -5.251821|   -5.842200|   -5.806430|   -5.453688|   -8.430657|    2.403807|
|         406|  5.4445e+00|   -5.148288|   -5.251055|   -5.841645|   -5.805908|   -5.452945|   -8.430270|    2.403979|
|         407|  5.4441e+00|   -5.147617|   -5.250291|   -5.841089|   -5.805382|   -5.452202|   -8.429875|    2.404150|
|         408|  5.4436e+00|   -5.146944|   -5.249527|   -5.840529|   -5.804852|   -5.451457|   -8.429472|    2.404321|
|         409|  5.4430e+00|   -5.146271|   -5.248764|   -5.839966|   -5.804319|   -5.450712|   -8.429060|    2.404492|
|         410|  5.4424e+00|   -5.145595|   -5.248001|   -5.839402|   -5.803780|   -5.449964|   -8.428640|    2.404662|
|         411|  5.4418e+00|   -5.144918|   -5.247237|   -5.838836|   -5.803236|   -5.449214|   -8.428212|    2.404831|
|         412|  5.4412e+00|   -5.144242|   -5.246475|   -5.838269|   -5.802689|   -5.448465|   -8.427776|    2.405000|
|         413|  5.4408e+00|   -5.143565|   -5.245713|   -5.837705|   -5.802140|   -5.447717|   -8.427332|    2.405168|
|         414|  5.4402e+00|   -5.142887|   -5.244950|   -5.837137|   -5.801587|   -5.446968|   -8.426880|    2.405336|
|         415|  5.4397e+00|   -5.142208|   -5.244186|   -5.836566|   -5.801031|   -5.446217|   -8.426419|    2.405503|
|         416|  5.4392e+00|   -5.141524|   -5.243420|   -5.835990|   -5.800469|   -5.445461|   -8.425951|    2.405670|
|         417|  5.4389e+00|   -5.140836|   -5.242654|   -5.835412|   -5.799902|   -5.444701|   -8.425475|    2.405836|
|         418|  5.4384e+00|   -5.140147|   -5.241887|   -5.834827|   -5.799331|   -5.443940|   -8.424991|    2.406002|
|         419|  5.4380e+00|   -5.139457|   -5.241121|   -5.834240|   -5.798756|   -5.443178|   -8.424499|    2.406166|
|         420|  5.4375e+00|   -5.138767|   -5.240356|   -5.833652|   -5.798177|   -5.442416|   -8.424000|    2.406331|
|         421|  5.4371e+00|   -5.138076|   -5.239590|   -5.833064|   -5.797593|   -5.441652|   -8.423492|    2.406494|
|         422|  5.4366e+00|   -5.137382|   -5.238825|   -5.832475|   -5.797005|   -5.440887|   -8.422977|    2.406657|
|         423|  5.4361e+00|   -5.136686|   -5.238059|   -5.831884|   -5.796410|   -5.440118|   -8.422454|    2.406819|
|         424|  5.4356e+00|   -5.135989|   -5.237294|   -5.831292|   -5.795812|   -5.439349|   -8.421924|    2.406981|
|         425|  5.4352e+00|   -5.135293|   -5.236530|   -5.830699|   -5.795211|   -5.438580|   -8.421387|    2.407142|
|         426|  5.4348e+00|   -5.134596|   -5.235767|   -5.830106|   -5.794607|   -5.437812|   -8.420842|    2.407302|
|         427|  5.4343e+00|   -5.133898|   -5.235004|   -5.829513|   -5.793999|   -5.437042|   -8.420290|    2.407461|
|         428|  5.4337e+00|   -5.133201|   -5.234242|   -5.828921|   -5.793392|   -5.436275|   -8.419730|    2.407619|
|         429|  5.4332e+00|   -5.132504|   -5.233480|   -5.828329|   -5.792783|   -5.435508|   -8.419164|    2.407777|
|         430|  5.4326e+00|   -5.131809|   -5.232721|   -5.827737|   -5.792172|   -5.434743|   -8.418590|    2.407934|
|         431|  5.4320e+00|   -5.131114|   -5.231963|   -5.827145|   -5.791558|   -5.433978|   -8.418008|    2.408090|
|         432|  5.4315e+00|   -5.130419|   -5.231208|   -5.826552|   -5.790939|   -5.433213|   -8.417420|    2.408245|
|         433|  5.4311e+00|   -5.129725|   -5.230453|   -5.825960|   -5.790318|   -5.432447|   -8.416824|    2.408400|
|         434|  5.4307e+00|   -5.129030|   -5.229698|   -5.825368|   -5.789695|   -5.431681|   -8.416221|    2.408553|
|         435|  5.4302e+00|   -5.128334|   -5.228944|   -5.824774|   -5.789066|   -5.430913|   -8.415612|    2.408706|
|         436|  5.4298e+00|   -5.127638|   -5.228190|   -5.824181|   -5.788434|   -5.430147|   -8.414996|    2.408857|
|         437|  5.4294e+00|   -5.126941|   -5.227435|   -5.823589|   -5.787799|   -5.429379|   -8.414373|    2.409008|
|         438|  5.4290e+00|   -5.126242|   -5.226679|   -5.822996|   -5.787162|   -5.428608|   -8.413743|    2.409158|
|         439|  5.4286e+00|   -5.125540|   -5.225921|   -5.822400|   -5.786526|   -5.427834|   -8.413107|    2.409307|
|         440|  5.4282e+00|   -5.124837|   -5.225161|   -5.821805|   -5.785887|   -5.427059|   -8.412464|    2.409455|
|         441|  5.4278e+00|   -5.124131|   -5.224401|   -5.821209|   -5.785249|   -5.426281|   -8.411815|    2.409602|
|         442|  5.4274e+00|   -5.123425|   -5.223642|   -5.820613|   -5.784609|   -5.425503|   -8.411160|    2.409748|
|         443|  5.4270e+00|   -5.122720|   -5.222884|   -5.820018|   -5.783966|   -5.424725|   -8.410499|    2.409893|
|         444|  5.4266e+00|   -5.122016|   -5.222128|   -5.819423|   -5.783324|   -5.423950|   -8.409832|    2.410038|
|         445|  5.4261e+00|   -5.121312|   -5.221374|   -5.818825|   -5.782678|   -5.423174|   -8.409158|    2.410181|
|         446|  5.4257e+00|   -5.120606|   -5.220619|   -5.818224|   -5.782027|   -5.422395|   -8.408479|    2.410323|
|         447|  5.4253e+00|   -5.119900|   -5.219865|   -5.817623|   -5.781373|   -5.421615|   -8.407793|    2.410464|
|         448|  5.4249e+00|   -5.119193|   -5.219112|   -5.817022|   -5.780716|   -5.420836|   -8.407102|    2.410604|
|         449|  5.4246e+00|   -5.118486|   -5.218359|   -5.816420|   -5.780060|   -5.420055|   -8.406405|    2.410743|
|         450|  5.4243e+00|   -5.117777|   -5.217606|   -5.815816|   -5.779398|   -5.419273|   -8.405702|    2.410881|
+-----------------------------------------------------------------------+
|        File Writing Summary       |              Filename             |
+-----------------------------------------------------------------------+
|SU2 binary restart                 |restart_flow.dat                   |
|Paraview                           |flow.vtu                           |
|Paraview surface                   |surface_flow.vtu                   |
+-----------------------------------------------------------------------+
+--------------------------------------------------------------------------------------------------------------------+
|  Inner_Iter|   Time(sec)|    rms[Rho]|   rms[RhoU]|   rms[RhoV]|   rms[RhoW]|   rms[RhoE]|     rms[nu]|          CD|
+--------------------------------------------------------------------------------------------------------------------+
|         451|  5.4740e+00|   -5.117068|   -5.216852|   -5.815214|   -5.778732|   -5.418490|   -8.404994|    2.411019|
|         452|  5.4756e+00|   -5.116359|   -5.216099|   -5.814613|   -5.778062|   -5.417707|   -8.404280|    2.411155|
|         453|  5.4773e+00|   -5.115651|   -5.215346|   -5.814013|   -5.777388|   -5.416926|   -8.403561|    2.411290|
|         454|  5.4790e+00|   -5.114944|   -5.214596|   -5.813413|   -5.776714|   -5.416146|   -8.402836|    2.411424|
|         455|  5.4805e+00|   -5.114238|   -5.213847|   -5.812813|   -5.776036|   -5.415366|   -8.402106|    2.411557|
|         456|  5.4819e+00|   -5.113532|   -5.213098|   -5.812215|   -5.775354|   -5.414586|   -8.401371|    2.411689|
|         457|  5.4834e+00|   -5.112828|   -5.212352|   -5.811620|   -5.774672|   -5.413808|   -8.400631|    2.411820|
|         458|  5.4850e+00|   -5.112126|   -5.211608|   -5.811024|   -5.773988|   -5.413032|   -8.399886|    2.411949|
|         459|  5.4864e+00|   -5.111426|   -5.210866|   -5.810427|   -5.773302|   -5.412256|   -8.399136|    2.412078|
|         460|  5.4878e+00|   -5.110726|   -5.210125|   -5.809832|   -5.772614|   -5.411483|   -8.398382|    2.412206|
|         461|  5.4890e+00|   -5.110028|   -5.209387|   -5.809238|   -5.771923|   -5.410709|   -8.397622|    2.412333|
|         462|  5.4903e+00|   -5.109331|   -5.208650|   -5.808645|   -5.771233|   -5.409937|   -8.396858|    2.412459|
|         463|  5.4916e+00|   -5.108636|   -5.207918|   -5.808051|   -5.770537|   -5.409167|   -8.396090|    2.412584|
|         464|  5.4929e+00|   -5.107943|   -5.207188|   -5.807457|   -5.769835|   -5.408398|   -8.395317|    2.412708|
|         465|  5.4942e+00|   -5.107253|   -5.206462|   -5.806863|   -5.769136|   -5.407632|   -8.394540|    2.412831|
|         466|  5.4952e+00|   -5.106564|   -5.205739|   -5.806268|   -5.768433|   -5.406868|   -8.393758|    2.412952|
|         467|  5.4960e+00|   -5.105881|   -5.205019|   -5.805676|   -5.767732|   -5.406110|   -8.392973|    2.413073|
|         468|  5.4968e+00|   -5.105203|   -5.204304|   -5.805085|   -5.767031|   -5.405358|   -8.392184|    2.413193|
|         469|  5.4978e+00|   -5.104531|   -5.203593|   -5.804500|   -5.766335|   -5.404612|   -8.391391|    2.413312|
|         470|  5.4988e+00|   -5.103863|   -5.202887|   -5.803916|   -5.765635|   -5.403871|   -8.390594|    2.413430|
|         471|  5.4997e+00|   -5.103196|   -5.202183|   -5.803329|   -5.764926|   -5.403129|   -8.389794|    2.413547|
|         472|  5.5006e+00|   -5.102529|   -5.201482|   -5.802742|   -5.764208|   -5.402385|   -8.388991|    2.413663|
|         473|  5.5014e+00|   -5.101862|   -5.200784|   -5.802155|   -5.763483|   -5.401642|   -8.388183|    2.413779|
|         474|  5.5024e+00|   -5.101197|   -5.200088|   -5.801568|   -5.762753|   -5.400898|   -8.387372|    2.413893|
|         475|  5.5033e+00|   -5.100530|   -5.199393|   -5.800979|   -5.762018|   -5.400152|   -8.386558|    2.414006|
|         476|  5.5042e+00|   -5.099868|   -5.198702|   -5.800390|   -5.761288|   -5.399411|   -8.385741|    2.414119|
|         477|  5.5051e+00|   -5.099208|   -5.198013|   -5.799802|   -5.760553|   -5.398671|   -8.384921|    2.414230|
|         478|  5.5059e+00|   -5.098547|   -5.197325|   -5.799215|   -5.759815|   -5.397930|   -8.384098|    2.414341|
|         479|  5.5068e+00|   -5.097888|   -5.196640|   -5.798626|   -5.759077|   -5.397190|   -8.383272|    2.414451|
|         480|  5.5077e+00|   -5.097230|   -5.195958|   -5.798035|   -5.758334|   -5.396450|   -8.382444|    2.414560|
|         481|  5.5085e+00|   -5.096571|   -5.195278|   -5.797443|   -5.757586|   -5.395708|   -8.381613|    2.414668|
|         482|  5.5093e+00|   -5.095914|   -5.194601|   -5.796851|   -5.756837|   -5.394969|   -8.380779|    2.414775|
|         483|  5.5104e+00|   -5.095257|   -5.193925|   -5.796258|   -5.756086|   -5.394229|   -8.379943|    2.414881|
|         484|  5.5114e+00|   -5.094604|   -5.193253|   -5.795663|   -5.755339|   -5.393494|   -8.379105|    2.414987|
|         485|  5.5123e+00|   -5.093953|   -5.192585|   -5.795069|   -5.754590|   -5.392761|   -8.378264|    2.415092|
|         486|  5.5129e+00|   -5.093303|   -5.191919|   -5.794474|   -5.753835|   -5.392027|   -8.377422|    2.415196|
|         487|  5.5127e+00|   -5.092652|   -5.191255|   -5.793881|   -5.753077|   -5.391293|   -8.376577|    2.415299|
|         488|  5.5121e+00|   -5.092005|   -5.190595|   -5.793290|   -5.752319|   -5.390564|   -8.375731|    2.415401|
|         489|  5.5115e+00|   -5.091360|   -5.189939|   -5.792703|   -5.751564|   -5.389837|   -8.374883|    2.415503|
|         490|  5.5109e+00|   -5.090717|   -5.189287|   -5.792117|   -5.750806|   -5.389111|   -8.374033|    2.415603|
|         491|  5.5103e+00|   -5.090076|   -5.188638|   -5.791535|   -5.750046|   -5.388387|   -8.373181|    2.415703|
|         492|  5.5098e+00|   -5.089437|   -5.187993|   -5.790955|   -5.749282|   -5.387665|   -8.372329|    2.415802|
|         493|  5.5093e+00|   -5.088802|   -5.187351|   -5.790376|   -5.748513|   -5.386947|   -8.371474|    2.415901|
|         494|  5.5086e+00|   -5.088169|   -5.186714|   -5.789799|   -5.747740|   -5.386230|   -8.370619|    2.415998|
|         495|  5.5081e+00|   -5.087542|   -5.186081|   -5.789221|   -5.746973|   -5.385520|   -8.369762|    2.416095|
|         496|  5.5076e+00|   -5.086919|   -5.185452|   -5.788647|   -5.746211|   -5.384816|   -8.368905|    2.416191|
|         497|  5.5070e+00|   -5.086302|   -5.184828|   -5.788074|   -5.745453|   -5.384117|   -8.368046|    2.416286|
|         498|  5.5065e+00|   -5.085686|   -5.184208|   -5.787499|   -5.744688|   -5.383418|   -8.367187|    2.416381|
|         499|  5.5059e+00|   -5.085072|   -5.183591|   -5.786924|   -5.743916|   -5.382720|   -8.366327|    2.416475|
|         500|  5.5055e+00|   -5.084461|   -5.182979|   -5.786351|   -5.743141|   -5.382026|   -8.365466|    2.416567|
|         501|  5.5049e+00|   -5.083856|   -5.182372|   -5.785780|   -5.742364|   -5.381336|   -8.364605|    2.416660|
|         502|  5.5043e+00|   -5.083253|   -5.181770|   -5.785210|   -5.741587|   -5.380651|   -8.363743|    2.416751|
|         503|  5.5039e+00|   -5.082652|   -5.181170|   -5.784640|   -5.740805|   -5.379966|   -8.362881|    2.416841|
|         504|  5.5034e+00|   -5.082054|   -5.180575|   -5.784069|   -5.740018|   -5.379284|   -8.362019|    2.416931|
|         505|  5.5029e+00|   -5.081459|   -5.179985|   -5.783498|   -5.739231|   -5.378604|   -8.361157|    2.417020|
|         506|  5.5023e+00|   -5.080866|   -5.179400|   -5.782927|   -5.738435|   -5.377927|   -8.360295|    2.417108|
|         507|  5.5018e+00|   -5.080278|   -5.178819|   -5.782361|   -5.737635|   -5.377256|   -8.359434|    2.417196|
|         508|  5.5013e+00|   -5.079696|   -5.178244|   -5.781797|   -5.736831|   -5.376590|   -8.358572|    2.417282|
|         509|  5.5008e+00|   -5.079118|   -5.177673|   -5.781236|   -5.736022|   -5.375929|   -8.357711|    2.417368|
|         510|  5.5004e+00|   -5.078543|   -5.177106|   -5.780677|   -5.735209|   -5.375272|   -8.356851|    2.417453|
|         511|  5.4999e+00|   -5.077972|   -5.176545|   -5.780117|   -5.734391|   -5.374618|   -8.355991|    2.417537|
|         512|  5.4996e+00|   -5.077403|   -5.175987|   -5.779556|   -5.733567|   -5.373966|   -8.355132|    2.417620|
|         513|  5.4991e+00|   -5.076836|   -5.175432|   -5.778992|   -5.732739|   -5.373314|   -8.354273|    2.417702|
|         514|  5.4986e+00|   -5.076268|   -5.174879|   -5.778425|   -5.731905|   -5.372660|   -8.353415|    2.417784|
|         515|  5.4982e+00|   -5.075702|   -5.174331|   -5.777857|   -5.731067|   -5.372008|   -8.352558|    2.417865|
|         516|  5.4976e+00|   -5.075138|   -5.173787|   -5.777288|   -5.730228|   -5.371357|   -8.351702|    2.417944|
|         517|  5.4971e+00|   -5.074577|   -5.173247|   -5.776720|   -5.729386|   -5.370711|   -8.350848|    2.418023|
|         518|  5.4965e+00|   -5.074017|   -5.172711|   -5.776151|   -5.728542|   -5.370065|   -8.349994|    2.418101|
|         519|  5.4961e+00|   -5.073458|   -5.172178|   -5.775580|   -5.727694|   -5.369419|   -8.349142|    2.418178|
|         520|  5.4957e+00|   -5.072896|   -5.171648|   -5.775007|   -5.726839|   -5.368770|   -8.348290|    2.418254|
|         521|  5.4952e+00|   -5.072337|   -5.171120|   -5.774437|   -5.725980|   -5.368123|   -8.347441|    2.418330|
|         522|  5.4947e+00|   -5.071781|   -5.170596|   -5.773868|   -5.725123|   -5.367481|   -8.346592|    2.418404|
|         523|  5.4940e+00|   -5.071226|   -5.170075|   -5.773299|   -5.724264|   -5.366839|   -8.345745|    2.418477|
|         524|  5.4934e+00|   -5.070672|   -5.169555|   -5.772729|   -5.723405|   -5.366199|   -8.344900|    2.418550|
|         525|  5.4930e+00|   -5.070118|   -5.169038|   -5.772155|   -5.722543|   -5.365558|   -8.344057|    2.418621|
|         526|  5.4926e+00|   -5.069567|   -5.168525|   -5.771581|   -5.721679|   -5.364920|   -8.343215|    2.418692|
|         527|  5.4921e+00|   -5.069019|   -5.168016|   -5.771009|   -5.720811|   -5.364286|   -8.342376|    2.418761|
|         528|  5.4916e+00|   -5.068475|   -5.167511|   -5.770440|   -5.719945|   -5.363655|   -8.341538|    2.418829|
|         529|  5.4910e+00|   -5.067935|   -5.167011|   -5.769873|   -5.719080|   -5.363031|   -8.340702|    2.418897|
|         530|  5.4906e+00|   -5.067400|   -5.166515|   -5.769308|   -5.718218|   -5.362411|   -8.339868|    2.418963|
|         531|  5.4901e+00|   -5.066864|   -5.166022|   -5.768742|   -5.717354|   -5.361790|   -8.339036|    2.419029|
|         532|  5.4897e+00|   -5.066332|   -5.165531|   -5.768177|   -5.716489|   -5.361173|   -8.338207|    2.419093|
|         533|  5.4892e+00|   -5.065805|   -5.165045|   -5.767613|   -5.715632|   -5.360562|   -8.337379|    2.419156|
|         534|  5.4888e+00|   -5.065285|   -5.164566|   -5.767053|   -5.714777|   -5.359959|   -8.336554|    2.419219|
|         535|  5.4885e+00|   -5.064768|   -5.164090|   -5.766494|   -5.713918|   -5.359360|   -8.335731|    2.419280|
|         536|  5.4880e+00|   -5.064253|   -5.163618|   -5.765936|   -5.713061|   -5.358763|   -8.334910|    2.419340|
|         537|  5.4875e+00|   -5.063743|   -5.163150|   -5.765378|   -5.712204|   -5.358170|   -8.334092|    2.419399|
|         538|  5.4869e+00|   -5.063235|   -5.162686|   -5.764818|   -5.711346|   -5.357578|   -8.333277|    2.419457|
[...]
|        6699|  5.4717e+00|   -4.871655|   -4.947563|   -5.508003|   -5.359693|   -5.133467|   -7.500310|    2.252052|
|        6700|  5.4716e+00|   -4.871231|   -4.947126|   -5.507786|   -5.359718|   -5.133252|   -7.500148|    2.251767|
|        6701|  5.4716e+00|   -4.870800|   -4.946680|   -5.507569|   -5.359738|   -5.133029|   -7.499990|    2.251482|
|        6702|  5.4716e+00|   -4.870360|   -4.946224|   -5.507351|   -5.359750|   -5.132799|   -7.499835|    2.251199|
|        6703|  5.4716e+00|   -4.869911|   -4.945758|   -5.507134|   -5.359756|   -5.132562|   -7.499683|    2.250918|
|        6704|  5.4716e+00|   -4.869453|   -4.945282|   -5.506917|   -5.359756|   -5.132316|   -7.499534|    2.250637|
|        6705|  5.4716e+00|   -4.868988|   -4.944796|   -5.506700|   -5.359749|   -5.132064|   -7.499389|    2.250358|
|        6706|  5.4716e+00|   -4.868514|   -4.944300|   -5.506485|   -5.359736|   -5.131805|   -7.499247|    2.250080|
|        6707|  5.4716e+00|   -4.868031|   -4.943793|   -5.506270|   -5.359717|   -5.131537|   -7.499109|    2.249804|
|        6708|  5.4716e+00|   -4.867540|   -4.943277|   -5.506056|   -5.359691|   -5.131262|   -7.498974|    2.249528|
|        6709|  5.4715e+00|   -4.867042|   -4.942752|   -5.505843|   -5.359659|   -5.130981|   -7.498842|    2.249254|
|        6710|  5.4715e+00|   -4.866535|   -4.942218|   -5.505632|   -5.359621|   -5.130692|   -7.498714|    2.248981|
|        6711|  5.4715e+00|   -4.866021|   -4.941675|   -5.505420|   -5.359577|   -5.130397|   -7.498590|    2.248710|
|        6712|  5.4715e+00|   -4.865500|   -4.941122|   -5.505207|   -5.359527|   -5.130094|   -7.498469|    2.248439|
|        6713|  5.4715e+00|   -4.864972|   -4.940563|   -5.504993|   -5.359472|   -5.129786|   -7.498351|    2.248170|
|        6714|  5.4715e+00|   -4.864437|   -4.939995|   -5.504779|   -5.359412|   -5.129472|   -7.498237|    2.247902|
|        6715|  5.4715e+00|   -4.863896|   -4.939419|   -5.504565|   -5.359346|   -5.129151|   -7.498127|    2.247636|
|        6716|  5.4715e+00|   -4.863348|   -4.938835|   -5.504351|   -5.359273|   -5.128824|   -7.498021|    2.247370|
|        6717|  5.4715e+00|   -4.862793|   -4.938243|   -5.504139|   -5.359195|   -5.128491|   -7.497918|    2.247106|
|        6718|  5.4715e+00|   -4.862232|   -4.937644|   -5.503926|   -5.359111|   -5.128152|   -7.497819|    2.246843|
|        6719|  5.4714e+00|   -4.861665|   -4.937036|   -5.503714|   -5.359022|   -5.127806|   -7.497723|    2.246582|
|        6720|  5.4714e+00|   -4.861091|   -4.936421|   -5.503502|   -5.358928|   -5.127454|   -7.497631|    2.246321|
|        6721|  5.4714e+00|   -4.860511|   -4.935799|   -5.503290|   -5.358829|   -5.127096|   -7.497543|    2.246062|
|        6722|  5.4714e+00|   -4.859925|   -4.935170|   -5.503079|   -5.358725|   -5.126733|   -7.497459|    2.245804|
|        6723|  5.4714e+00|   -4.859333|   -4.934534|   -5.502867|   -5.358616|   -5.126364|   -7.497379|    2.245548|
|        6724|  5.4714e+00|   -4.858736|   -4.933891|   -5.502654|   -5.358502|   -5.125989|   -7.497302|    2.245292|
|        6725|  5.4713e+00|   -4.858132|   -4.933241|   -5.502441|   -5.358383|   -5.125607|   -7.497229|    2.245038|
|        6726|  5.4713e+00|   -4.857525|   -4.932586|   -5.502229|   -5.358261|   -5.125223|   -7.497160|    2.244785|
|        6727|  5.4713e+00|   -4.856913|   -4.931925|   -5.502017|   -5.358134|   -5.124832|   -7.497094|    2.244534|
|        6728|  5.4713e+00|   -4.856295|   -4.931257|   -5.501807|   -5.358002|   -5.124436|   -7.497033|    2.244283|
|        6729|  5.4713e+00|   -4.855672|   -4.930582|   -5.501596|   -5.357864|   -5.124034|   -7.496975|    2.244034|
|        6730|  5.4712e+00|   -4.855043|   -4.929902|   -5.501385|   -5.357723|   -5.123626|   -7.496922|    2.243786|
|        6731|  5.4712e+00|   -4.854409|   -4.929214|   -5.501173|   -5.357576|   -5.123212|   -7.496872|    2.243540|
|        6732|  5.4712e+00|   -4.853769|   -4.928521|   -5.500959|   -5.357424|   -5.122792|   -7.496826|    2.243294|
|        6733|  5.4712e+00|   -4.853125|   -4.927823|   -5.500747|   -5.357268|   -5.122368|   -7.496784|    2.243050|
|        6734|  5.4712e+00|   -4.852478|   -4.927120|   -5.500536|   -5.357108|   -5.121940|   -7.496747|    2.242807|
|        6735|  5.4712e+00|   -4.851826|   -4.926412|   -5.500326|   -5.356943|   -5.121507|   -7.496713|    2.242565|
|        6736|  5.4712e+00|   -4.851171|   -4.925698|   -5.500116|   -5.356774|   -5.121069|   -7.496683|    2.242325|
|        6737|  5.4712e+00|   -4.850510|   -4.924979|   -5.499907|   -5.356601|   -5.120625|   -7.496657|    2.242085|
|        6738|  5.4712e+00|   -4.849845|   -4.924254|   -5.499698|   -5.356423|   -5.120176|   -7.496635|    2.241847|
|        6739|  5.4712e+00|   -4.849176|   -4.923525|   -5.499488|   -5.356241|   -5.119723|   -7.496617|    2.241610|
|        6740|  5.4712e+00|   -4.848504|   -4.922792|   -5.499278|   -5.356055|   -5.119266|   -7.496603|    2.241375|
|        6741|  5.4711e+00|   -4.847828|   -4.922055|   -5.499067|   -5.355865|   -5.118804|   -7.496593|    2.241140|
|        6742|  5.4711e+00|   -4.847149|   -4.921313|   -5.498855|   -5.355671|   -5.118339|   -7.496587|    2.240907|
|        6743|  5.4711e+00|   -4.846467|   -4.920568|   -5.498642|   -5.355473|   -5.117868|   -7.496586|    2.240675|
|        6744|  5.4711e+00|   -4.845782|   -4.919818|   -5.498429|   -5.355272|   -5.117394|   -7.496588|    2.240444|
|        6745|  5.4711e+00|   -4.845093|   -4.919065|   -5.498217|   -5.355066|   -5.116917|   -7.496594|    2.240215|
|        6746|  5.4711e+00|   -4.844402|   -4.918309|   -5.498006|   -5.354858|   -5.116435|   -7.496605|    2.239986|
|        6747|  5.4711e+00|   -4.843709|   -4.917549|   -5.497795|   -5.354646|   -5.115951|   -7.496620|    2.239759|
|        6748|  5.4711e+00|   -4.843013|   -4.916786|   -5.497584|   -5.354431|   -5.115462|   -7.496639|    2.239533|
|        6749|  5.4711e+00|   -4.842314|   -4.916020|   -5.497373|   -5.354211|   -5.114970|   -7.496663|    2.239309|
|        6750|  5.4711e+00|   -4.841613|   -4.915251|   -5.497163|   -5.353988|   -5.114475|   -7.496691|    2.239085|
+-----------------------------------------------------------------------+
|        File Writing Summary       |              Filename             |
+-----------------------------------------------------------------------+
|SU2 binary restart                 |restart_flow.dat                   |
|Paraview                           |flow.vtu                           |
|Paraview surface                   |surface_flow.vtu                   |
+-----------------------------------------------------------------------+
+--------------------------------------------------------------------------------------------------------------------+
|  Inner_Iter|   Time(sec)|    rms[Rho]|   rms[RhoU]|   rms[RhoV]|   rms[RhoW]|   rms[RhoE]|     rms[nu]|          CD|
+--------------------------------------------------------------------------------------------------------------------+
|        6751|  5.4740e+00|   -4.840910|   -4.914479|   -5.496953|   -5.353761|   -5.113976|   -7.496723|    2.238863|
|        6752|  5.4740e+00|   -4.840206|   -4.913704|   -5.496744|   -5.353532|   -5.113475|   -7.496759|    2.238642|
|        6753|  5.4740e+00|   -4.839500|   -4.912927|   -5.496536|   -5.353301|   -5.112972|   -7.496800|    2.238422|
|        6754|  5.4739e+00|   -4.838793|   -4.912149|   -5.496330|   -5.353066|   -5.112467|   -7.496845|    2.238203|
|        6755|  5.4739e+00|   -4.838084|   -4.911367|   -5.496125|   -5.352827|   -5.111957|   -7.496895|    2.237985|
|        6756|  5.4739e+00|   -4.837373|   -4.910583|   -5.495921|   -5.352585|   -5.111445|   -7.496949|    2.237769|
|        6757|  5.4739e+00|   -4.836661|   -4.909798|   -5.495716|   -5.352339|   -5.110930|   -7.497007|    2.237554|
|        6758|  5.4738e+00|   -4.835946|   -4.909010|   -5.495512|   -5.352089|   -5.110412|   -7.497069|    2.237340|
|        6759|  5.4738e+00|   -4.835231|   -4.908220|   -5.495307|   -5.351836|   -5.109892|   -7.497136|    2.237127|
|        6760|  5.4738e+00|   -4.834514|   -4.907428|   -5.495101|   -5.351579|   -5.109367|   -7.497207|    2.236916|
|        6761|  5.4738e+00|   -4.833795|   -4.906635|   -5.494895|   -5.351319|   -5.108840|   -7.497283|    2.236705|
|        6762|  5.4738e+00|   -4.833075|   -4.905840|   -5.494689|   -5.351056|   -5.108311|   -7.497363|    2.236496|
|        6763|  5.4738e+00|   -4.832355|   -4.905044|   -5.494484|   -5.350790|   -5.107779|   -7.497447|    2.236288|
|        6764|  5.4738e+00|   -4.831634|   -4.904247|   -5.494280|   -5.350522|   -5.107246|   -7.497536|    2.236081|
|        6765|  5.4737e+00|   -4.830912|   -4.903448|   -5.494076|   -5.350250|   -5.106709|   -7.497629|    2.235876|
|        6766|  5.4737e+00|   -4.830189|   -4.902649|   -5.493873|   -5.349975|   -5.106172|   -7.497726|    2.235672|
|        6767|  5.4737e+00|   -4.829466|   -4.901849|   -5.493671|   -5.349699|   -5.105632|   -7.497828|    2.235468|
|        6768|  5.4737e+00|   -4.828744|   -4.901048|   -5.493469|   -5.349420|   -5.105091|   -7.497934|    2.235266|
|        6769|  5.4737e+00|   -4.828018|   -4.900243|   -5.493268|   -5.349140|   -5.104545|   -7.498044|    2.235066|
|        6770|  5.4737e+00|   -4.827293|   -4.899437|   -5.493070|   -5.348858|   -5.103997|   -7.498159|    2.234866|
|        6771|  5.4736e+00|   -4.826567|   -4.898631|   -5.492872|   -5.348575|   -5.103448|   -7.498278|    2.234668|
|        6772|  5.4736e+00|   -4.825842|   -4.897824|   -5.492673|   -5.348290|   -5.102897|   -7.498402|    2.234471|
|        6773|  5.4736e+00|   -4.825118|   -4.897018|   -5.492476|   -5.348004|   -5.102345|   -7.498530|    2.234275|
|        6774|  5.4736e+00|   -4.824395|   -4.896212|   -5.492281|   -5.347715|   -5.101792|   -7.498664|    2.234080|
|        6775|  5.4736e+00|   -4.823672|   -4.895406|   -5.492085|   -5.347424|   -5.101238|   -7.498801|    2.233887|
|        6776|  5.4736e+00|   -4.822949|   -4.894600|   -5.491890|   -5.347131|   -5.100682|   -7.498943|    2.233695|
|        6777|  5.4736e+00|   -4.822227|   -4.893794|   -5.491697|   -5.346836|   -5.100124|   -7.499090|    2.233504|
|        6778|  5.4735e+00|   -4.821505|   -4.892988|   -5.491504|   -5.346540|   -5.099566|   -7.499240|    2.233314|
|        6779|  5.4735e+00|   -4.820785|   -4.892184|   -5.491313|   -5.346242|   -5.099008|   -7.499395|    2.233126|
|        6780|  5.4735e+00|   -4.820066|   -4.891380|   -5.491122|   -5.345943|   -5.098448|   -7.499555|    2.232938|
|        6781|  5.4735e+00|   -4.819347|   -4.890577|   -5.490932|   -5.345641|   -5.097887|   -7.499718|    2.232752|
|        6782|  5.4735e+00|   -4.818629|   -4.889774|   -5.490743|   -5.345338|   -5.097326|   -7.499886|    2.232568|
|        6783|  5.4735e+00|   -4.817912|   -4.888972|   -5.490555|   -5.345034|   -5.096763|   -7.500058|    2.232384|
|        6784|  5.4735e+00|   -4.817197|   -4.888170|   -5.490368|   -5.344729|   -5.096200|   -7.500235|    2.232202|
|        6785|  5.4734e+00|   -4.816481|   -4.887370|   -5.490181|   -5.344422|   -5.095635|   -7.500415|    2.232021|
|        6786|  5.4734e+00|   -4.815768|   -4.886570|   -5.489995|   -5.344114|   -5.095071|   -7.500600|    2.231841|
|        6787|  5.4734e+00|   -4.815056|   -4.885772|   -5.489811|   -5.343805|   -5.094507|   -7.500789|    2.231663|
|        6788|  5.4734e+00|   -4.814347|   -4.884977|   -5.489629|   -5.343495|   -5.093943|   -7.500983|    2.231485|
|        6789|  5.4734e+00|   -4.813639|   -4.884183|   -5.489447|   -5.343185|   -5.093380|   -7.501181|    2.231309|
|        6790|  5.4734e+00|   -4.812935|   -4.883392|   -5.489266|   -5.342876|   -5.092819|   -7.501383|    2.231135|
|        6791|  5.4734e+00|   -4.812233|   -4.882603|   -5.489086|   -5.342566|   -5.092258|   -7.501590|    2.230961|
|        6792|  5.4733e+00|   -4.811534|   -4.881817|   -5.488907|   -5.342255|   -5.091698|   -7.501800|    2.230789|
|        6793|  5.4733e+00|   -4.810837|   -4.881034|   -5.488729|   -5.341942|   -5.091139|   -7.502016|    2.230618|
|        6794|  5.4733e+00|   -4.810143|   -4.880253|   -5.488553|   -5.341629|   -5.090582|   -7.502235|    2.230449|
|        6795|  5.4733e+00|   -4.809451|   -4.879474|   -5.488378|   -5.341316|   -5.090024|   -7.502458|    2.230281|
|        6796|  5.4733e+00|   -4.808761|   -4.878695|   -5.488203|   -5.341002|   -5.089465|   -7.502686|    2.230114|
|        6797|  5.4733e+00|   -4.808072|   -4.877919|   -5.488029|   -5.340687|   -5.088906|   -7.502918|    2.229948|
|        6798|  5.4733e+00|   -4.807386|   -4.877145|   -5.487857|   -5.340371|   -5.088349|   -7.503154|    2.229784|
|        6799|  5.4732e+00|   -4.806703|   -4.876375|   -5.487687|   -5.340055|   -5.087793|   -7.503395|    2.229620|
|        6800|  5.4732e+00|   -4.806023|   -4.875607|   -5.487517|   -5.339737|   -5.087238|   -7.503639|    2.229459|
|        6801|  5.4732e+00|   -4.805346|   -4.874842|   -5.487350|   -5.339419|   -5.086685|   -7.503888|    2.229298|
|        6802|  5.4732e+00|   -4.804672|   -4.874081|   -5.487184|   -5.339101|   -5.086133|   -7.504140|    2.229139|
|        6803|  5.4732e+00|   -4.804001|   -4.873323|   -5.487020|   -5.338783|   -5.085583|   -7.504398|    2.228981|
|        6804|  5.4731e+00|   -4.803333|   -4.872568|   -5.486855|   -5.338466|   -5.085034|   -7.504659|    2.228824|
|        6805|  5.4731e+00|   -4.802668|   -4.871816|   -5.486691|   -5.338148|   -5.084486|   -7.504925|    2.228669|
|        6806|  5.4731e+00|   -4.802006|   -4.871067|   -5.486526|   -5.337830|   -5.083939|   -7.505195|    2.228515|
|        6807|  5.4731e+00|   -4.801347|   -4.870321|   -5.486363|   -5.337513|   -5.083394|   -7.505469|    2.228362|
|        6808|  5.4731e+00|   -4.800691|   -4.869578|   -5.486200|   -5.337195|   -5.082850|   -7.505747|    2.228211|
|        6809|  5.4730e+00|   -4.800039|   -4.868840|   -5.486037|   -5.336878|   -5.082308|   -7.506029|    2.228061|
|        6810|  5.4730e+00|   -4.799391|   -4.868105|   -5.485877|   -5.336562|   -5.081769|   -7.506315|    2.227912|
|        6811|  5.4730e+00|   -4.798746|   -4.867375|   -5.485717|   -5.336245|   -5.081231|   -7.506606|    2.227764|
|        6812|  5.4730e+00|   -4.798104|   -4.866647|   -5.485559|   -5.335929|   -5.080696|   -7.506900|    2.227618|
|        6813|  5.4730e+00|   -4.797466|   -4.865924|   -5.485403|   -5.335612|   -5.080162|   -7.507199|    2.227473|
|        6814|  5.4730e+00|   -4.796832|   -4.865204|   -5.485249|   -5.335296|   -5.079630|   -7.507502|    2.227329|
|        6815|  5.4730e+00|   -4.796201|   -4.864487|   -5.485095|   -5.334981|   -5.079100|   -7.507809|    2.227186|
|        6816|  5.4729e+00|   -4.795573|   -4.863774|   -5.484944|   -5.334666|   -5.078571|   -7.508119|    2.227045|
|        6817|  5.4729e+00|   -4.794950|   -4.863066|   -5.484794|   -5.334352|   -5.078045|   -7.508434|    2.226905|
|        6818|  5.4729e+00|   -4.794328|   -4.862358|   -5.484645|   -5.334038|   -5.077519|   -7.508753|    2.226767|
|        6819|  5.4729e+00|   -4.793709|   -4.861654|   -5.484498|   -5.333725|   -5.076994|   -7.509076|    2.226629|
|        6820|  5.4729e+00|   -4.793093|   -4.860952|   -5.484352|   -5.333412|   -5.076471|   -7.509403|    2.226493|
|        6821|  5.4729e+00|   -4.792481|   -4.860254|   -5.484208|   -5.333101|   -5.075949|   -7.509734|    2.226358|
|        6822|  5.4728e+00|   -4.791871|   -4.859560|   -5.484066|   -5.332790|   -5.075429|   -7.510069|    2.226225|
|        6823|  5.4728e+00|   -4.791267|   -4.858869|   -5.483927|   -5.332480|   -5.074913|   -7.510408|    2.226092|
|        6824|  5.4728e+00|   -4.790666|   -4.858183|   -5.483788|   -5.332171|   -5.074398|   -7.510751|    2.225961|
|        6825|  5.4728e+00|   -4.790069|   -4.857502|   -5.483650|   -5.331863|   -5.073886|   -7.511097|    2.225831|
|        6826|  5.4728e+00|   -4.789476|   -4.856824|   -5.483513|   -5.331556|   -5.073377|   -7.511448|    2.225703|
|        6827|  5.4727e+00|   -4.788887|   -4.856151|   -5.483377|   -5.331250|   -5.072869|   -7.511802|    2.225575|
|        6828|  5.4727e+00|   -4.788303|   -4.855482|   -5.483242|   -5.330945|   -5.072365|   -7.512160|    2.225449|
|        6829|  5.4727e+00|   -4.787722|   -4.854818|   -5.483108|   -5.330641|   -5.071864|   -7.512522|    2.225324|
|        6830|  5.4727e+00|   -4.787146|   -4.854157|   -5.482975|   -5.330338|   -5.071365|   -7.512888|    2.225200|
|        6831|  5.4727e+00|   -4.786574|   -4.853502|   -5.482845|   -5.330036|   -5.070869|   -7.513258|    2.225077|
|        6832|  5.4727e+00|   -4.786006|   -4.852851|   -5.482715|   -5.329735|   -5.070376|   -7.513631|    2.224956|
|        6833|  5.4727e+00|   -4.785441|   -4.852204|   -5.482587|   -5.329434|   -5.069884|   -7.514008|    2.224836|
|        6834|  5.4727e+00|   -4.784880|   -4.851560|   -5.482459|   -5.329135|   -5.069394|   -7.514389|    2.224717|
|        6835|  5.4727e+00|   -4.784323|   -4.850921|   -5.482333|   -5.328835|   -5.068907|   -7.514773|    2.224599|
|        6836|  5.4726e+00|   -4.783771|   -4.850287|   -5.482209|   -5.328537|   -5.068423|   -7.515161|    2.224482|
|        6837|  5.4726e+00|   -4.783223|   -4.849658|   -5.482085|   -5.328241|   -5.067943|   -7.515553|    2.224367|
|        6838|  5.4726e+00|   -4.782679|   -4.849033|   -5.481963|   -5.327945|   -5.067465|   -7.515948|    2.224253|
|        6839|  5.4726e+00|   -4.782139|   -4.848414|   -5.481842|   -5.327651|   -5.066990|   -7.516347|    2.224140|
|        6840|  5.4726e+00|   -4.781604|   -4.847799|   -5.481724|   -5.327359|   -5.066519|   -7.516749|    2.224028|
|        6841|  5.4726e+00|   -4.781074|   -4.847188|   -5.481608|   -5.327068|   -5.066051|   -7.517155|    2.223917|
|        6842|  5.4726e+00|   -4.780547|   -4.846582|   -5.481493|   -5.326778|   -5.065585|   -7.517564|    2.223807|
|        6843|  5.4725e+00|   -4.780025|   -4.845981|   -5.481379|   -5.326491|   -5.065123|   -7.517977|    2.223699|
|        6844|  5.4725e+00|   -4.779507|   -4.845384|   -5.481267|   -5.326205|   -5.064663|   -7.518393|    2.223591|
|        6845|  5.4725e+00|   -4.778993|   -4.844792|   -5.481158|   -5.325922|   -5.064206|   -7.518813|    2.223485|
|        6846|  5.4725e+00|   -4.778484|   -4.844204|   -5.481051|   -5.325641|   -5.063753|   -7.519236|    2.223380|
|        6847|  5.4725e+00|   -4.777980|   -4.843621|   -5.480946|   -5.325363|   -5.063303|   -7.519662|    2.223276|
|        6848|  5.4725e+00|   -4.777479|   -4.843043|   -5.480843|   -5.325086|   -5.062857|   -7.520092|    2.223174|
|        6849|  5.4725e+00|   -4.776984|   -4.842470|   -5.480743|   -5.324811|   -5.062414|   -7.520525|    2.223072|
|        6850|  5.4725e+00|   -4.776492|   -4.841901|   -5.480643|   -5.324538|   -5.061973|   -7.520961|    2.222972|
|        6851|  5.4725e+00|   -4.776005|   -4.841337|   -5.480544|   -5.324267|   -5.061536|   -7.521400|    2.222872|
|        6852|  5.4725e+00|   -4.775521|   -4.840776|   -5.480447|   -5.323998|   -5.061101|   -7.521843|    2.222774|
|        6853|  5.4724e+00|   -4.775041|   -4.840219|   -5.480351|   -5.323731|   -5.060668|   -7.522289|    2.222677|
|        6854|  5.4724e+00|   -4.774565|   -4.839667|   -5.480256|   -5.323467|   -5.060238|   -7.522738|    2.222581|
|        6855|  5.4724e+00|   -4.774093|   -4.839119|   -5.480162|   -5.323205|   -5.059812|   -7.523190|    2.222486|
|        6856|  5.4724e+00|   -4.773626|   -4.838576|   -5.480068|   -5.322947|   -5.059388|   -7.523644|    2.222393|
|        6857|  5.4724e+00|   -4.773163|   -4.838038|   -5.479975|   -5.322692|   -5.058968|   -7.524102|    2.222300|
|        6858|  5.4724e+00|   -4.772704|   -4.837504|   -5.479884|   -5.322440|   -5.058551|   -7.524563|    2.222209|
