Nodes: tri[0040,0965]
Tasks: 128
NPN:   64

-------------------------------------------------------------------------
|    ___ _   _ ___                                                      |
|   / __| | | |_  )   Release 7.5.1 "Blackbird"                         |
|   \__ \ |_| |/ /                                                      |
|   |___/\___//___|   Suite (Computational Fluid Dynamics Code)         |
|                                                                       |
-------------------------------------------------------------------------
| SU2 Project Website: https://su2code.github.io                        |
|                                                                       |
| The SU2 Project is maintained by the SU2 Foundation                   |
| (http://su2foundation.org)                                            |
-------------------------------------------------------------------------
| Copyright 2012-2023, SU2 Contributors                                 |
|                                                                       |
| SU2 is free software; you can redistribute it and/or                  |
| modify it under the terms of the GNU Lesser General Public            |
| License as published by the Free Software Foundation; either          |
| version 2.1 of the License, or (at your option) any later version.    |
|                                                                       |
| SU2 is distributed in the hope that it will be useful,                |
| but WITHOUT ANY WARRANTY; without even the implied warranty of        |
| MERCHANTABILITY or FITNESS FOR A PARTICULAR PURPOSE. See the GNU      |
| Lesser General Public License for more details.                       |
|                                                                       |
| You should have received a copy of the GNU Lesser General Public      |
| License along with SU2. If not, see <http://www.gnu.org/licenses/>.   |
-------------------------------------------------------------------------

Parsing config file for zone 0

----------------- Physical Case Definition ( Zone 0 ) -------------------
Compressible RANS equations.
Turbulence model: Spalart-Allmaras-noft2
Hybrid RANS/LES: No Hybrid RANS/LES
Mach number: 6.
Angle of attack (AoA): 15 deg, and angle of sideslip (AoS): 0 deg.
Reynolds number: 6.86229e+08. Reference length 5.
Reading and writing binary SU2 native restart files.
Read flow solution from: restart_flow.dat.
Non-Dimensional simulation (V=1.0, Rho=1.0, T=1.0 at the farfield).
The reference area will be computed using y(2D) or z(3D) projection.
The semi-span will be computed using the max y(3D) value.
The reference length is 0.64607 m.
Reference origin for moment evaluation is (0.25, 0, 0).
Surface(s) where the force coefficients are evaluated: ORION_SURFACE.

Input mesh file name: fine.su2

--------------- Space Numerical Integration ( Zone 0 ) ------------------
Jameson-Schmidt-Turkel scheme (2nd order in space) for the flow inviscid terms.
JST viscous coefficients (2nd & 4th): 0.5, 0.02.
The method includes a grid stretching correction (p = 0.3).
Scalar upwind solver for the turbulence model.
First order integration in space.
Average of gradients with correction (viscous flow terms).
Average of gradients with correction (viscous turbulence terms).
Gradient for upwind reconstruction: Green-Gauss.
Gradient for viscous and source terms: Green-Gauss.

--------------- Time Numerical Integration  ( Zone 0 ) ------------------
Local time stepping (steady state simulation).
Euler implicit method for the flow equations.
FGMRES is used for solving the linear system.
Using a ILU(0) preconditioning.
Convergence criteria of the linear solver: 1e-06.
Max number of linear iterations: 100.
CFL adaptation. Factor down: 0.5, factor up: 1.1,
                lower limit: 0.05, upper limit: 0.5,
                acceptable linear residual: 0.001.
Courant-Friedrichs-Lewy number:     0.03
Euler implicit time integration for the turbulence model.

------------------ Convergence Criteria  ( Zone 0 ) ---------------------
Maximum number of solver subiterations: 999999.
Begin convergence monitoring at iteration 5.
Residual minimum value: 1e-8.
Cauchy series min. value: 1e-10.
Number of Cauchy elements: 100.
Begin windowed time average at iteration 0.

-------------------- Output Information ( Zone 0 ) ----------------------
File writing frequency: 
+------------------------------------+
|                     File| Frequency|
+------------------------------------+
|                  RESTART|       150|
|                 PARAVIEW|       150|
|         SURFACE_PARAVIEW|       150|
+------------------------------------+
Writing the convergence history file every 1 inner iterations.
Writing the screen convergence history every 1 inner iterations.
The tabular file format is CSV (.csv).
Convergence history file name: history.
Forces breakdown file name: forces_breakdown.dat.
Surface file name: surface_flow.
Volume file name: flow.
Restart file name: restart_flow.

------------- Config File Boundary Information ( Zone 0 ) ---------------
+-----------------------------------------------------------------------+
|                        Marker Type|                        Marker Name|
+-----------------------------------------------------------------------+
|                          Far-field|                           FARFIELD|
+-----------------------------------------------------------------------+
|                     Heat flux wall|                      ORION_SURFACE|
+-----------------------------------------------------------------------+

-------------------- Output Preprocessing ( Zone 0 ) --------------------

WARNING: SURFACE_PRESSURE_DROP can only be computed for at least 2 surfaces (outlet, inlet, ...)

Screen output fields: INNER_ITER, WALL_TIME, MIN_DELTA_TIME, MAX_DELTA_TIME, MIN_CFL, MAX_CFL, AVG_CFL, RMS_DENSITY, RMS_MOMENTUM-X, RMS_MOMENTUM-Y, RMS_MOMENTUM-Z, RMS_ENERGY, RMS_NU_TILDE, DRAG
History output group(s): ITER, RMS_RES
Convergence field(s): RMS_DENSITY
Warning: No (valid) fields chosen for time convergence monitoring. Time convergence monitoring inactive.
Volume output fields: MACH, PRESSURE, TEMPERATURE, DENSITY, HEAT_FLUX, Y_PLUS, COORDINATES, SOLUTION

------------------- Geometry Preprocessing ( Zone 0 ) -------------------
Three dimensional problem.
62211324 grid points before partitioning.
190879888 volume elements before partitioning.
2 surface markers.
4104 boundary elements in index 0 (Marker = FARFIELD).
1824836 boundary elements in index 1 (Marker = ORION_SURFACE).
Executing the partitioning functions.
Building the graph adjacency structure.
Calling ParMETIS... graph partitioning complete (4959327 edge cuts).
Distributing ParMETIS coloring.
Rebalancing vertices.
Rebalancing volume element connectivity.
Rebalancing markers and surface elements.
66952290 vertices including ghost points. 
197997438 interior elements including halo cells. 
103171259 tetrahedra.
94500655 prisms.
325524 pyramids.
Establishing MPI communication patterns.
Setting point connectivity.
Renumbering points (Reverse Cuthill McKee Ordering).
Recomputing point connectivity.
Setting element connectivity.
Checking the numerical grid orientation.
All volume elements are correctly orientend.
All surface elements are correctly orientend.
Identifying edges and vertices.
Setting the control volume structure.
Volume of the computational grid: 535693.
Searching for the closest normal neighbors to the surfaces.
Storing a mapping from global to local point index.
Compute the surface curvature.
Max K: 132.896. Mean K: 3.9104. Standard deviation K: 7.49569.
Checking for periodicity.
Computing mesh quality statistics for the dual control volumes.
+--------------------------------------------------------------+
|           Mesh Quality Metric|        Minimum|        Maximum|
+--------------------------------------------------------------+
|    Orthogonality Angle (deg.)|        53.0661|             90|
|     CV Face Area Aspect Ratio|        1.01143|        75298.5|
|           CV Sub-Volume Ratio|        1.00029|        45.0258|
+--------------------------------------------------------------+
Finding max control volume width.
Communicating number of neighbors.
Reference area = 11.531 m^2.
Semi-span length = 2.49999 m.
Wetted area = 57.9072 m^2.
Area projection in the x-plane = 19.6343 m^2, y-plane = 11.531 m^2, z-plane = 11.531 m^2.
Max. coordinate in the x-direction = 2.575 m, y-direction = 2.49999 m, z-direction = 2.49999 m.
Min. coordinate in the x-direction = -0.71 m, y-direction = -2.49999 m, z-direction = -2.5 m.
Computing wall distances.

-------------------- Solver Preprocessing ( Zone 0 ) --------------------
Viscous flow: Computing pressure using the ideal gas law
based on the free-stream temperature and a density computed
from the Reynolds number.
Force coefficients computed using free-stream values.

-- Models:
+------------------------------------------------------------------------------+
|          Viscosity Model|        Conductivity Model|              Fluid Model|
+------------------------------------------------------------------------------+
|               SUTHERLAND|          CONSTANT_PRANDTL|             STANDARD_AIR|
+------------------------------------------------------------------------------+
-- Fluid properties:
+------------------------------------------------------------------------------+
|                  Name|    Dim. value|    Ref. value|      Unit|Non-dim. value|
+------------------------------------------------------------------------------+
|        Ref. Viscosity|     1.716e-05|       2455.73|   N.s/m^2|   6.98773e-09|
|      Sutherland Temp.|        273.15|        288.15|         K|      0.947944|
|     Sutherland Const.|         110.4|        288.15|         K|      0.383134|
+------------------------------------------------------------------------------+
|        Prandtl (Lam.)|             -|             -|         -|          0.72|
|       Prandtl (Turb.)|             -|             -|         -|           0.9|
+------------------------------------------------------------------------------+
|          Gas Constant|       287.058|       14467.7|  N.m/kg.K|     0.0198413|
|      Spec. Heat Ratio|             -|             -|         -|           1.4|
+------------------------------------------------------------------------------+
-- Initial and free-stream conditions:
+------------------------------------------------------------------------------+
|                  Name|    Dim. value|    Ref. value|      Unit|Non-dim. value|
+------------------------------------------------------------------------------+
|       Static Pressure|       99485.6|   5.01407e+06|        Pa|     0.0198413|
|               Density|       1.20274|       1.20274|    kg/m^3|             1|
|           Temperature|        288.15|        288.15|         K|             1|
|          Total Energy|   2.29123e+06|   4.16887e+06|   m^2/s^2|      0.549603|
|            Velocity-X|       1972.21|       2041.78|       m/s|      0.965926|
|            Velocity-Y|             0|       2041.78|       m/s|             0|
|            Velocity-Z|       528.452|       2041.78|       m/s|      0.258819|
|    Velocity Magnitude|       2041.78|       2041.78|       m/s|             1|
+------------------------------------------------------------------------------+
|             Viscosity|    1.7893e-05|       2455.73|   N.s/m^2|    7.2862e-09|
|          Conductivity|             -|   3.55289e+07|   W/m^2.K|             -|
|     Turb. Kin. Energy|       15633.3|   4.16887e+06|   m^2/s^2|       0.00375|
|     Spec. Dissipation|   1.05085e+08|       2041.78|       1/s|       51467.1|
+------------------------------------------------------------------------------+
|           Mach Number|             -|             -|         -|             6|
|       Reynolds Number|             -|             -|         -|   6.86229e+08|
+------------------------------------------------------------------------------+
Initialize Jacobian structure (Navier-Stokes). MG level: 0.
Initialize Jacobian structure (SA model).

------------------- Numerics Preprocessing ( Zone 0 ) -------------------

----------------- Integration Preprocessing ( Zone 0 ) ------------------

------------------- Iteration Preprocessing ( Zone 0 ) ------------------
Euler/Navier-Stokes/RANS fluid iteration.

------------------------------ Begin Solver -----------------------------

Simulation Run using the Single-zone Driver
WARNING: SU2 was not compiled for an AVX-capable architecture. Performance could be better,
         see https://su2code.github.io/docs_v7/Build-SU2-Linux-MacOS/#compiler-optimizations
+-------------------------------------------------------------------------------------------------------------------------------------------------------------------------------------+
|  Inner_Iter|   Time(sec)|      Min DT|      Max DT|     Min CFL|     Max CFL|     Avg CFL|    rms[Rho]|   rms[RhoU]|   rms[RhoV]|   rms[RhoW]|   rms[RhoE]|     rms[nu]|          CD|
+-------------------------------------------------------------------------------------------------------------------------------------------------------------------------------------+
|           0|  2.0163e+01|  3.2920e-10|  4.6276e-02|  5.0000e-02|  5.0000e-02|  5.0000e-02|   -4.630590|   -4.688788|   -5.331962|   -5.262116|   -4.921370|   -7.699072|    2.314651|
|           1|  1.4142e+01|  5.4867e-10|  7.7126e-02|  5.5000e-02|  5.5000e-02|  5.5000e-02|   -4.630569|   -4.688756|   -5.332001|   -5.262115|   -4.921374|   -7.699028|    2.314665|
|           2|  1.2092e+01|  6.0354e-10|  8.4839e-02|  6.0500e-02|  6.0500e-02|  6.0500e-02|   -4.630532|   -4.688701|   -5.332060|   -5.262109|   -4.921376|   -7.699013|    2.314681|
|           3|  1.1018e+01|  6.6389e-10|  9.3323e-02|  6.6550e-02|  6.6550e-02|  6.6550e-02|   -4.630491|   -4.688639|   -5.332122|   -5.262102|   -4.921376|   -7.698996|    2.314699|
|           4|  1.0372e+01|  7.3028e-10|  1.0265e-01|  7.3205e-02|  7.3205e-02|  7.3205e-02|   -4.630444|   -4.688571|   -5.332189|   -5.262092|   -4.921375|   -7.698978|    2.314718|
|           5|  9.9233e+00|  8.0331e-10|  1.1292e-01|  8.0526e-02|  8.0526e-02|  8.0526e-02|   -4.630392|   -4.688494|   -5.332258|   -5.262080|   -4.921371|   -7.698958|    2.314739|
|           6|  9.6399e+00|  8.8365e-10|  1.2421e-01|  8.8578e-02|  8.8578e-02|  8.8578e-02|   -4.630332|   -4.688410|   -5.332331|   -5.262063|   -4.921364|   -7.698936|    2.314762|
|           7|  9.3878e+00|  9.7202e-10|  1.3663e-01|  9.7436e-02|  9.7436e-02|  9.7436e-02|   -4.630265|   -4.688315|   -5.332407|   -5.262043|   -4.921353|   -7.698912|    2.314788|
|           8|  9.2013e+00|  1.0692e-09|  1.5030e-01|  1.0718e-01|  1.0718e-01|  1.0718e-01|   -4.630189|   -4.688209|   -5.332485|   -5.262018|   -4.921338|   -7.698885|    2.314816|
|           9|  9.0663e+00|  1.1762e-09|  1.6533e-01|  1.1790e-01|  1.1790e-01|  1.1790e-01|   -4.630103|   -4.688091|   -5.332565|   -5.261987|   -4.921317|   -7.698856|    2.314847|
|          10|  8.9564e+00|  1.2938e-09|  1.8186e-01|  1.2969e-01|  1.2969e-01|  1.2969e-01|   -4.630006|   -4.687959|   -5.332645|   -5.261948|   -4.921288|   -7.698823|    2.314880|
|          11|  8.8599e+00|  1.4232e-09|  2.0005e-01|  1.4266e-01|  1.4266e-01|  1.4266e-01|   -4.629895|   -4.687811|   -5.332726|   -5.261901|   -4.921251|   -7.698786|    2.314918|
|          12|  8.8603e+00|  1.5655e-09|  2.2005e-01|  1.5692e-01|  1.5692e-01|  1.5692e-01|   -4.629769|   -4.687645|   -5.332804|   -5.261843|   -4.921203|   -7.698746|    2.314959|
|          13|  8.8608e+00|  1.7220e-09|  2.4205e-01|  1.7261e-01|  1.7261e-01|  1.7261e-01|   -4.629625|   -4.687459|   -5.332879|   -5.261773|   -4.921141|   -7.698702|    2.315004|
|          14|  8.9000e+00|  1.8943e-09|  2.6626e-01|  1.8987e-01|  1.8987e-01|  1.8987e-01|   -4.629462|   -4.687249|   -5.332948|   -5.261687|   -4.921064|   -7.698652|    2.315054|
|          15|  8.9642e+00|  2.0837e-09|  2.9289e-01|  2.0886e-01|  2.0886e-01|  2.0886e-01|   -4.629275|   -4.687012|   -5.333008|   -5.261584|   -4.920966|   -7.698598|    2.315108|
|          16|  8.9932e+00|  2.2921e-09|  3.2217e-01|  2.2975e-01|  2.2975e-01|  2.2975e-01|   -4.629061|   -4.686745|   -5.333056|   -5.261459|   -4.920844|   -7.698537|    2.315168|
|          17|  9.0228e+00|  2.5213e-09|  3.5439e-01|  2.5272e-01|  2.5272e-01|  2.5272e-01|   -4.628816|   -4.686442|   -5.333088|   -5.261309|   -4.920693|   -7.698469|    2.315234|
|          18|  9.0333e+00|  2.7735e-09|  3.8983e-01|  2.7800e-01|  2.7800e-01|  2.7800e-01|   -4.628535|   -4.686099|   -5.333100|   -5.261129|   -4.920506|   -7.698394|    2.315307|
|          19|  9.0368e+00|  3.0509e-09|  4.2881e-01|  3.0580e-01|  3.0580e-01|  3.0580e-01|   -4.628212|   -4.685709|   -5.333085|   -5.260914|   -4.920277|   -7.698311|    2.315387|
|          20|  9.0272e+00|  3.3560e-09|  4.7170e-01|  3.3637e-01|  3.3637e-01|  3.3637e-01|   -4.627839|   -4.685265|   -5.333037|   -5.260657|   -4.919997|   -7.698218|    2.315475|
|          21|  9.0555e+00|  3.6917e-09|  5.1887e-01|  3.7001e-01|  3.7001e-01|  3.7001e-01|   -4.627409|   -4.684757|   -5.332949|   -5.260350|   -4.919653|   -7.698113|    2.315571|
|          22|  9.0817e+00|  4.0609e-09|  5.7075e-01|  4.0701e-01|  4.0701e-01|  4.0701e-01|   -4.626913|   -4.684176|   -5.332811|   -5.259984|   -4.919234|   -7.697997|    2.315677|
|          23|  9.1322e+00|  4.4670e-09|  6.2783e-01|  4.4772e-01|  4.4772e-01|  4.4772e-01|   -4.626338|   -4.683509|   -5.332614|   -5.259550|   -4.918724|   -7.697866|    2.315794|
|          24|  9.1837e+00|  4.9138e-09|  6.9061e-01|  4.9249e-01|  4.9249e-01|  4.9249e-01|   -4.625671|   -4.682740|   -5.332345|   -5.259034|   -4.918105|   -7.697720|    2.315922|
|          25|  9.2235e+00|  5.4053e-09|  7.5967e-01|  5.0000e-01|  5.0000e-01|  5.0000e-01|   -4.624895|   -4.681854|   -5.331993|   -5.258423|   -4.917353|   -7.697554|    2.316063|
|          26|  9.2570e+00|  5.4879e-09|  7.7126e-01|  5.0000e-01|  5.0000e-01|  5.0000e-01|   -4.623993|   -4.680828|   -5.331542|   -5.257698|   -4.916443|   -7.697457|    2.316206|
|          27|  9.3000e+00|  5.4880e-09|  7.7126e-01|  5.0000e-01|  5.0000e-01|  5.0000e-01|   -4.623064|   -4.679771|   -5.331086|   -5.256953|   -4.915496|   -7.697369|    2.316348|
|          28|  9.3394e+00|  5.4881e-09|  7.7126e-01|  5.0000e-01|  5.0000e-01|  5.0000e-01|   -4.622128|   -4.678703|   -5.330640|   -5.256206|   -4.914536|   -7.697276|    2.316491|
|          29|  9.3695e+00|  5.4883e-09|  7.7126e-01|  5.0000e-01|  5.0000e-01|  5.0000e-01|   -4.621186|   -4.677626|   -5.330206|   -5.255458|   -4.913565|   -7.697178|    2.316633|
|          30|  9.3949e+00|  5.4884e-09|  7.7126e-01|  5.0000e-01|  5.0000e-01|  5.0000e-01|   -4.620239|   -4.676541|   -5.329784|   -5.254708|   -4.912583|   -7.697075|    2.316775|
|          31|  9.4215e+00|  5.4885e-09|  7.7126e-01|  5.0000e-01|  5.0000e-01|  5.0000e-01|   -4.619288|   -4.675451|   -5.329372|   -5.253956|   -4.911594|   -7.696968|    2.316916|
|          32|  9.4514e+00|  5.4886e-09|  7.7126e-01|  5.0000e-01|  5.0000e-01|  5.0000e-01|   -4.618333|   -4.674354|   -5.328970|   -5.253202|   -4.910597|   -7.696856|    2.317058|
|          33|  9.4746e+00|  5.4887e-09|  7.7126e-01|  5.0000e-01|  5.0000e-01|  5.0000e-01|   -4.617374|   -4.673250|   -5.328578|   -5.252447|   -4.909590|   -7.696739|    2.317199|
|          34|  9.5083e+00|  5.4888e-09|  7.7126e-01|  5.0000e-01|  5.0000e-01|  5.0000e-01|   -4.616411|   -4.672141|   -5.328196|   -5.251691|   -4.908577|   -7.696617|    2.317340|
|          35|  9.5368e+00|  5.4890e-09|  7.7126e-01|  5.0000e-01|  5.0000e-01|  5.0000e-01|   -4.615445|   -4.671027|   -5.327823|   -5.250934|   -4.907558|   -7.696491|    2.317480|
|          36|  9.5580e+00|  5.4891e-09|  7.7126e-01|  5.0000e-01|  5.0000e-01|  5.0000e-01|   -4.614476|   -4.669909|   -5.327456|   -5.250177|   -4.906533|   -7.696361|    2.317620|
|          37|  9.5794e+00|  5.4892e-09|  7.7126e-01|  5.0000e-01|  5.0000e-01|  5.0000e-01|   -4.613505|   -4.668789|   -5.327098|   -5.249420|   -4.905504|   -7.696226|    2.317760|
|          38|  9.5972e+00|  5.4893e-09|  7.7126e-01|  5.0000e-01|  5.0000e-01|  5.0000e-01|   -4.612534|   -4.667667|   -5.326749|   -5.248662|   -4.904473|   -7.696086|    2.317900|
|          39|  9.6190e+00|  5.4894e-09|  7.7126e-01|  5.0000e-01|  5.0000e-01|  5.0000e-01|   -4.611562|   -4.666545|   -5.326407|   -5.247905|   -4.903440|   -7.695942|    2.318040|
|          40|  9.6320e+00|  5.4895e-09|  7.7126e-01|  5.0000e-01|  5.0000e-01|  5.0000e-01|   -4.610591|   -4.665422|   -5.326072|   -5.247148|   -4.902406|   -7.695793|    2.318179|
|          41|  9.6620e+00|  5.4896e-09|  7.7126e-01|  5.0000e-01|  5.0000e-01|  5.0000e-01|   -4.609621|   -4.664300|   -5.325743|   -5.246392|   -4.901372|   -7.695639|    2.318318|
|          42|  9.6995e+00|  5.4897e-09|  7.7126e-01|  5.0000e-01|  5.0000e-01|  5.0000e-01|   -4.608652|   -4.663179|   -5.325421|   -5.245638|   -4.900339|   -7.695481|    2.318457|
|          43|  9.7338e+00|  5.4898e-09|  7.7126e-01|  5.0000e-01|  5.0000e-01|  5.0000e-01|   -4.607686|   -4.662062|   -5.325105|   -5.244884|   -4.899309|   -7.695318|    2.318595|
|          44|  9.7622e+00|  5.4900e-09|  7.7126e-01|  5.0000e-01|  5.0000e-01|  5.0000e-01|   -4.606722|   -4.660947|   -5.324795|   -5.244133|   -4.898281|   -7.695150|    2.318733|
|          45|  9.7845e+00|  5.4901e-09|  7.7126e-01|  5.0000e-01|  5.0000e-01|  5.0000e-01|   -4.605759|   -4.659832|   -5.324491|   -5.243384|   -4.897254|   -7.694978|    2.318871|
|          46|  9.7994e+00|  5.4902e-09|  7.7126e-01|  5.0000e-01|  5.0000e-01|  5.0000e-01|   -4.604800|   -4.658721|   -5.324192|   -5.242638|   -4.896230|   -7.694801|    2.319008|
|          47|  9.8145e+00|  5.4903e-09|  7.7126e-01|  5.0000e-01|  5.0000e-01|  5.0000e-01|   -4.603849|   -4.657620|   -5.323900|   -5.241898|   -4.895217|   -7.694619|    2.319146|
|          48|  9.8235e+00|  5.4904e-09|  7.7126e-01|  5.0000e-01|  5.0000e-01|  5.0000e-01|   -4.602900|   -4.656521|   -5.323612|   -5.241160|   -4.894209|   -7.694433|    2.319283|
|          49|  9.8316e+00|  5.4905e-09|  7.7126e-01|  5.0000e-01|  5.0000e-01|  5.0000e-01|   -4.601954|   -4.655425|   -5.323328|   -5.240424|   -4.893204|   -7.694243|    2.319419|
|          50|  9.8463e+00|  5.4906e-09|  7.7126e-01|  5.0000e-01|  5.0000e-01|  5.0000e-01|   -4.601011|   -4.654333|   -5.323048|   -5.239693|   -4.892203|   -7.694048|    2.319556|
|          51|  9.8522e+00|  5.4907e-09|  7.7126e-01|  5.0000e-01|  5.0000e-01|  5.0000e-01|   -4.600074|   -4.653245|   -5.322771|   -5.238965|   -4.891208|   -7.693849|    2.319692|
|          52|  9.8552e+00|  5.4908e-09|  7.7126e-01|  5.0000e-01|  5.0000e-01|  5.0000e-01|   -4.599140|   -4.652163|   -5.322499|   -5.238241|   -4.890219|   -7.693645|    2.319828|
|          53|  9.8550e+00|  5.4909e-09|  7.7126e-01|  5.0000e-01|  5.0000e-01|  5.0000e-01|   -4.598213|   -4.651086|   -5.322232|   -5.237521|   -4.889237|   -7.693437|    2.319964|
|          54|  9.8544e+00|  5.4910e-09|  7.7126e-01|  5.0000e-01|  5.0000e-01|  5.0000e-01|   -4.597292|   -4.650016|   -5.321968|   -5.236806|   -4.888262|   -7.693225|    2.320099|
|          55|  9.8542e+00|  5.4911e-09|  7.7126e-01|  5.0000e-01|  5.0000e-01|  5.0000e-01|   -4.596377|   -4.648953|   -5.321708|   -5.236094|   -4.887295|   -7.693008|    2.320234|
|          56|  9.8534e+00|  5.4912e-09|  7.7126e-01|  5.0000e-01|  5.0000e-01|  5.0000e-01|   -4.595467|   -4.647895|   -5.321450|   -5.235386|   -4.886333|   -7.692786|    2.320369|
|          57|  9.8514e+00|  5.4913e-09|  7.7126e-01|  5.0000e-01|  5.0000e-01|  5.0000e-01|   -4.594563|   -4.646844|   -5.321195|   -5.234682|   -4.885379|   -7.692560|    2.320503|
|          58|  9.8495e+00|  5.4914e-09|  7.7126e-01|  5.0000e-01|  5.0000e-01|  5.0000e-01|   -4.593663|   -4.645798|   -5.320942|   -5.233980|   -4.884431|   -7.692330|    2.320638|
|          59|  9.8468e+00|  5.4915e-09|  7.7126e-01|  5.0000e-01|  5.0000e-01|  5.0000e-01|   -4.592770|   -4.644758|   -5.320692|   -5.233282|   -4.883490|   -7.692095|    2.320771|
|          60|  9.8451e+00|  5.4916e-09|  7.7126e-01|  5.0000e-01|  5.0000e-01|  5.0000e-01|   -4.591883|   -4.643726|   -5.320445|   -5.232588|   -4.882556|   -7.691856|    2.320905|
|          61|  9.8446e+00|  5.4917e-09|  7.7126e-01|  5.0000e-01|  5.0000e-01|  5.0000e-01|   -4.591002|   -4.642700|   -5.320202|   -5.231896|   -4.881630|   -7.691613|    2.321038|
|          62|  9.8609e+00|  5.4917e-09|  7.7126e-01|  5.0000e-01|  5.0000e-01|  5.0000e-01|   -4.590136|   -4.641692|   -5.319959|   -5.231217|   -4.880720|   -7.691366|    2.321172|
|          63|  9.8635e+00|  5.4918e-09|  7.7126e-01|  5.0000e-01|  5.0000e-01|  5.0000e-01|   -4.589281|   -4.640698|   -5.319718|   -5.230546|   -4.879824|   -7.691115|    2.321304|
|          64|  9.8645e+00|  5.4919e-09|  7.7126e-01|  5.0000e-01|  5.0000e-01|  5.0000e-01|   -4.588431|   -4.639710|   -5.319480|   -5.229878|   -4.878934|   -7.690859|    2.321437|
|          65|  9.8648e+00|  5.4920e-09|  7.7126e-01|  5.0000e-01|  5.0000e-01|  5.0000e-01|   -4.587588|   -4.638728|   -5.319244|   -5.229212|   -4.878050|   -7.690600|    2.321569|
|          66|  9.8840e+00|  5.4921e-09|  7.7126e-01|  5.0000e-01|  5.0000e-01|  5.0000e-01|   -4.586749|   -4.637752|   -5.319011|   -5.228550|   -4.877172|   -7.690336|    2.321701|
|          67|  9.8905e+00|  5.4922e-09|  7.7126e-01|  5.0000e-01|  5.0000e-01|  5.0000e-01|   -4.585916|   -4.636782|   -5.318779|   -5.227891|   -4.876300|   -7.690069|    2.321832|
|          68|  9.8929e+00|  5.4923e-09|  7.7126e-01|  5.0000e-01|  5.0000e-01|  5.0000e-01|   -4.585088|   -4.635818|   -5.318549|   -5.227235|   -4.875432|   -7.689798|    2.321964|
|          69|  9.8982e+00|  5.4924e-09|  7.7126e-01|  5.0000e-01|  5.0000e-01|  5.0000e-01|   -4.584265|   -4.634859|   -5.318322|   -5.226582|   -4.874571|   -7.689523|    2.322095|
|          70|  9.9002e+00|  5.4925e-09|  7.7126e-01|  5.0000e-01|  5.0000e-01|  5.0000e-01|   -4.583448|   -4.633906|   -5.318097|   -5.225932|   -4.873715|   -7.689243|    2.322226|
|          71|  9.9039e+00|  5.4925e-09|  7.7126e-01|  5.0000e-01|  5.0000e-01|  5.0000e-01|   -4.582635|   -4.632958|   -5.317875|   -5.225285|   -4.872864|   -7.688960|    2.322356|
|          72|  9.9062e+00|  5.4926e-09|  7.7126e-01|  5.0000e-01|  5.0000e-01|  5.0000e-01|   -4.581827|   -4.632014|   -5.317654|   -5.224640|   -4.872016|   -7.688674|    2.322486|
|          73|  9.9188e+00|  5.4927e-09|  7.7126e-01|  5.0000e-01|  5.0000e-01|  5.0000e-01|   -4.581023|   -4.631074|   -5.317436|   -5.223998|   -4.871172|   -7.688383|    2.322616|
|          74|  9.9294e+00|  5.4928e-09|  7.7126e-01|  5.0000e-01|  5.0000e-01|  5.0000e-01|   -4.580226|   -4.630142|   -5.317222|   -5.223361|   -4.870336|   -7.688088|    2.322745|
|          75|  9.9369e+00|  5.4929e-09|  7.7126e-01|  5.0000e-01|  5.0000e-01|  5.0000e-01|   -4.579435|   -4.629215|   -5.317011|   -5.222726|   -4.869504|   -7.687790|    2.322875|
|          76|  9.9419e+00|  5.4930e-09|  7.7126e-01|  5.0000e-01|  5.0000e-01|  5.0000e-01|   -4.578648|   -4.628293|   -5.316802|   -5.222094|   -4.868677|   -7.687488|    2.323004|
|          77|  9.9417e+00|  5.4930e-09|  7.7126e-01|  5.0000e-01|  5.0000e-01|  5.0000e-01|   -4.577867|   -4.627376|   -5.316597|   -5.221467|   -4.867855|   -7.687182|    2.323132|
|          78|  9.9444e+00|  5.4931e-09|  7.7126e-01|  5.0000e-01|  5.0000e-01|  5.0000e-01|   -4.577091|   -4.626465|   -5.316394|   -5.220843|   -4.867038|   -7.686872|    2.323261|
|          79|  9.9449e+00|  5.4932e-09|  7.7126e-01|  5.0000e-01|  5.0000e-01|  5.0000e-01|   -4.576322|   -4.625560|   -5.316197|   -5.220222|   -4.866228|   -7.686559|    2.323389|
|          80|  9.9431e+00|  5.4933e-09|  7.7126e-01|  5.0000e-01|  5.0000e-01|  5.0000e-01|   -4.575558|   -4.624660|   -5.316003|   -5.219603|   -4.865421|   -7.686242|    2.323517|
|          81|  9.9418e+00|  5.4933e-09|  7.7126e-01|  5.0000e-01|  5.0000e-01|  5.0000e-01|   -4.574799|   -4.623764|   -5.315813|   -5.218986|   -4.864618|   -7.685922|    2.323644|
|          82|  9.9420e+00|  5.4934e-09|  7.7126e-01|  5.0000e-01|  5.0000e-01|  5.0000e-01|   -4.574045|   -4.622874|   -5.315625|   -5.218373|   -4.863820|   -7.685598|    2.323772|
|          83|  9.9400e+00|  5.4935e-09|  7.7125e-01|  5.0000e-01|  5.0000e-01|  5.0000e-01|   -4.573296|   -4.621988|   -5.315440|   -5.217762|   -4.863026|   -7.685270|    2.323899|
|          84|  9.9382e+00|  5.4936e-09|  7.7125e-01|  5.0000e-01|  5.0000e-01|  5.0000e-01|   -4.572552|   -4.621107|   -5.315259|   -5.217153|   -4.862236|   -7.684940|    2.324026|
|          85|  9.9419e+00|  5.4936e-09|  7.7125e-01|  5.0000e-01|  5.0000e-01|  5.0000e-01|   -4.571812|   -4.620230|   -5.315082|   -5.216546|   -4.861449|   -7.684605|    2.324152|
|          86|  9.9442e+00|  5.4937e-09|  7.7125e-01|  5.0000e-01|  5.0000e-01|  5.0000e-01|   -4.571079|   -4.619360|   -5.314908|   -5.215942|   -4.860668|   -7.684268|    2.324279|
|          87|  9.9428e+00|  5.4938e-09|  7.7125e-01|  5.0000e-01|  5.0000e-01|  5.0000e-01|   -4.570350|   -4.618494|   -5.314737|   -5.215339|   -4.859890|   -7.683927|    2.324405|
|          88|  9.9438e+00|  5.4939e-09|  7.7125e-01|  5.0000e-01|  5.0000e-01|  5.0000e-01|   -4.569627|   -4.617632|   -5.314569|   -5.214739|   -4.859116|   -7.683583|    2.324531|
|          89|  9.9431e+00|  5.4939e-09|  7.7125e-01|  5.0000e-01|  5.0000e-01|  5.0000e-01|   -4.568908|   -4.616776|   -5.314403|   -5.214140|   -4.858345|   -7.683236|    2.324656|
|          90|  9.9409e+00|  5.4940e-09|  7.7125e-01|  5.0000e-01|  5.0000e-01|  5.0000e-01|   -4.568193|   -4.615923|   -5.314240|   -5.213544|   -4.857578|   -7.682886|    2.324782|
|          91|  9.9392e+00|  5.4941e-09|  7.7125e-01|  5.0000e-01|  5.0000e-01|  5.0000e-01|   -4.567484|   -4.615076|   -5.314081|   -5.212952|   -4.856815|   -7.682532|    2.324907|
|          92|  9.9378e+00|  5.4941e-09|  7.7125e-01|  5.0000e-01|  5.0000e-01|  5.0000e-01|   -4.566781|   -4.614234|   -5.313927|   -5.212364|   -4.856057|   -7.682176|    2.325032|
|          93|  9.9378e+00|  5.4942e-09|  7.7125e-01|  5.0000e-01|  5.0000e-01|  5.0000e-01|   -4.566083|   -4.613399|   -5.313777|   -5.211777|   -4.855304|   -7.681816|    2.325157|
|          94|  9.9379e+00|  5.4942e-09|  7.7125e-01|  5.0000e-01|  5.0000e-01|  5.0000e-01|   -4.565390|   -4.612569|   -5.313629|   -5.211193|   -4.854554|   -7.681453|    2.325282|
|          95|  9.9384e+00|  5.4943e-09|  7.7125e-01|  5.0000e-01|  5.0000e-01|  5.0000e-01|   -4.564704|   -4.611744|   -5.313486|   -5.210611|   -4.853810|   -7.681088|    2.325406|
|          96|  9.9366e+00|  5.4944e-09|  7.7125e-01|  5.0000e-01|  5.0000e-01|  5.0000e-01|   -4.564023|   -4.610926|   -5.313345|   -5.210032|   -4.853069|   -7.680720|    2.325531|
|          97|  9.9418e+00|  5.4944e-09|  7.7125e-01|  5.0000e-01|  5.0000e-01|  5.0000e-01|   -4.563348|   -4.610113|   -5.313208|   -5.209455|   -4.852334|   -7.680349|    2.325655|
|          98|  9.9459e+00|  5.4945e-09|  7.7125e-01|  5.0000e-01|  5.0000e-01|  5.0000e-01|   -4.562680|   -4.609308|   -5.313074|   -5.208881|   -4.851604|   -7.679975|    2.325779|
|          99|  9.9478e+00|  5.4946e-09|  7.7125e-01|  5.0000e-01|  5.0000e-01|  5.0000e-01|   -4.562019|   -4.608511|   -5.312944|   -5.208311|   -4.850880|   -7.679599|    2.325903|
|         100|  9.9463e+00|  5.4946e-09|  7.7125e-01|  5.0000e-01|  5.0000e-01|  5.0000e-01|   -4.561365|   -4.607722|   -5.312819|   -5.207745|   -4.850164|   -7.679220|    2.326027|
|         101|  9.9471e+00|  5.4947e-09|  7.7125e-01|  5.0000e-01|  5.0000e-01|  5.0000e-01|   -4.560717|   -4.606938|   -5.312697|   -5.207183|   -4.849451|   -7.678839|    2.326151|
|         102|  9.9489e+00|  5.4947e-09|  7.7125e-01|  5.0000e-01|  5.0000e-01|  5.0000e-01|   -4.560077|   -4.606162|   -5.312579|   -5.206628|   -4.848746|   -7.678455|    2.326274|
|         103|  9.9487e+00|  5.4948e-09|  7.7125e-01|  5.0000e-01|  5.0000e-01|  5.0000e-01|   -4.559444|   -4.605393|   -5.312463|   -5.206077|   -4.848045|   -7.678069|    2.326398|
|         104|  9.9482e+00|  5.4948e-09|  7.7125e-01|  5.0000e-01|  5.0000e-01|  5.0000e-01|   -4.558816|   -4.604630|   -5.312351|   -5.205529|   -4.847349|   -7.677681|    2.326522|
|         105|  9.9487e+00|  5.4949e-09|  7.7125e-01|  5.0000e-01|  5.0000e-01|  5.0000e-01|   -4.558193|   -4.603873|   -5.312243|   -5.204986|   -4.846657|   -7.677290|    2.326645|
|         106|  9.9482e+00|  5.4949e-09|  7.7125e-01|  5.0000e-01|  5.0000e-01|  5.0000e-01|   -4.557577|   -4.603122|   -5.312138|   -5.204446|   -4.845970|   -7.676898|    2.326769|
|         107|  9.9462e+00|  5.4950e-09|  7.7125e-01|  5.0000e-01|  5.0000e-01|  5.0000e-01|   -4.556967|   -4.602376|   -5.312038|   -5.203911|   -4.845288|   -7.676504|    2.326892|
|         108|  9.9469e+00|  5.4950e-09|  7.7125e-01|  5.0000e-01|  5.0000e-01|  5.0000e-01|   -4.556363|   -4.601637|   -5.311941|   -5.203380|   -4.844611|   -7.676109|    2.327015|
|         109|  9.9525e+00|  5.4951e-09|  7.7125e-01|  5.0000e-01|  5.0000e-01|  5.0000e-01|   -4.555767|   -4.600907|   -5.311849|   -5.202855|   -4.843941|   -7.675712|    2.327139|
|         110|  9.9523e+00|  5.4951e-09|  7.7125e-01|  5.0000e-01|  5.0000e-01|  5.0000e-01|   -4.555177|   -4.600181|   -5.311761|   -5.202334|   -4.843274|   -7.675313|    2.327262|
|         111|  9.9573e+00|  5.4952e-09|  7.7125e-01|  5.0000e-01|  5.0000e-01|  5.0000e-01|   -4.554593|   -4.599462|   -5.311676|   -5.201818|   -4.842613|   -7.674913|    2.327386|
|         112|  9.9727e+00|  5.4952e-09|  7.7125e-01|  5.0000e-01|  5.0000e-01|  5.0000e-01|   -4.554016|   -4.598751|   -5.311594|   -5.201308|   -4.841958|   -7.674510|    2.327510|
|         113|  9.9770e+00|  5.4953e-09|  7.7125e-01|  5.0000e-01|  5.0000e-01|  5.0000e-01|   -4.553452|   -4.598052|   -5.311518|   -5.200804|   -4.841314|   -7.674106|    2.327633|
|         114|  9.9813e+00|  5.4953e-09|  7.7125e-01|  5.0000e-01|  5.0000e-01|  5.0000e-01|   -4.552894|   -4.597361|   -5.311447|   -5.200307|   -4.840676|   -7.673701|    2.327757|
|         115|  9.9890e+00|  5.4954e-09|  7.7125e-01|  5.0000e-01|  5.0000e-01|  5.0000e-01|   -4.552343|   -4.596676|   -5.311378|   -5.199815|   -4.840043|   -7.673293|    2.327881|
|         116|  9.9981e+00|  5.4954e-09|  7.7125e-01|  5.0000e-01|  5.0000e-01|  5.0000e-01|   -4.551799|   -4.595997|   -5.311314|   -5.199330|   -4.839415|   -7.672885|    2.328005|
|         117|  1.0002e+01|  5.4955e-09|  7.7125e-01|  5.0000e-01|  5.0000e-01|  5.0000e-01|   -4.551261|   -4.595326|   -5.311252|   -5.198851|   -4.838793|   -7.672475|    2.328129|
|         118|  1.0011e+01|  5.4955e-09|  7.7125e-01|  5.0000e-01|  5.0000e-01|  5.0000e-01|   -4.550730|   -4.594661|   -5.311194|   -5.198377|   -4.838175|   -7.672064|    2.328253|
|         119|  1.0017e+01|  5.4955e-09|  7.7125e-01|  5.0000e-01|  5.0000e-01|  5.0000e-01|   -4.550206|   -4.594003|   -5.311139|   -5.197909|   -4.837564|   -7.671651|    2.328377|
|         120|  1.0023e+01|  5.4956e-09|  7.7125e-01|  5.0000e-01|  5.0000e-01|  5.0000e-01|   -4.549689|   -4.593352|   -5.311087|   -5.197446|   -4.836958|   -7.671238|    2.328501|
|         121|  1.0027e+01|  5.4956e-09|  7.7125e-01|  5.0000e-01|  5.0000e-01|  5.0000e-01|   -4.549178|   -4.592707|   -5.311037|   -5.196988|   -4.836356|   -7.670824|    2.328626|
|         122|  1.0030e+01|  5.4956e-09|  7.7125e-01|  5.0000e-01|  5.0000e-01|  5.0000e-01|   -4.548674|   -4.592071|   -5.310995|   -5.196539|   -4.835762|   -7.670409|    2.328751|
|         123|  1.0031e+01|  5.4957e-09|  7.7125e-01|  5.0000e-01|  5.0000e-01|  5.0000e-01|   -4.548179|   -4.591444|   -5.310960|   -5.196098|   -4.835176|   -7.669993|    2.328876|
|         124|  1.0031e+01|  5.4957e-09|  7.7125e-01|  5.0000e-01|  5.0000e-01|  5.0000e-01|   -4.547692|   -4.590824|   -5.310927|   -5.195663|   -4.834595|   -7.669576|    2.329001|
|         125|  1.0035e+01|  5.4958e-09|  7.7125e-01|  5.0000e-01|  5.0000e-01|  5.0000e-01|   -4.547211|   -4.590212|   -5.310897|   -5.195235|   -4.834020|   -7.669158|    2.329127|
|         126|  1.0040e+01|  5.4958e-09|  7.7125e-01|  5.0000e-01|  5.0000e-01|  5.0000e-01|   -4.546738|   -4.589607|   -5.310871|   -5.194813|   -4.833452|   -7.668740|    2.329252|
|         127|  1.0045e+01|  5.4958e-09|  7.7125e-01|  5.0000e-01|  5.0000e-01|  5.0000e-01|   -4.546273|   -4.589010|   -5.310849|   -5.194399|   -4.832890|   -7.668321|    2.329378|
|         128|  1.0048e+01|  5.4958e-09|  7.7125e-01|  5.0000e-01|  5.0000e-01|  5.0000e-01|   -4.545815|   -4.588421|   -5.310830|   -5.193993|   -4.832335|   -7.667901|    2.329505|
|         129|  1.0048e+01|  5.4959e-09|  7.7125e-01|  5.0000e-01|  5.0000e-01|  5.0000e-01|   -4.545366|   -4.587841|   -5.310815|   -5.193596|   -4.831788|   -7.667481|    2.329631|
|         130|  1.0046e+01|  5.4959e-09|  7.7125e-01|  5.0000e-01|  5.0000e-01|  5.0000e-01|   -4.544925|   -4.587269|   -5.310803|   -5.193205|   -4.831248|   -7.667060|    2.329758|
|         131|  1.0045e+01|  5.4959e-09|  7.7125e-01|  5.0000e-01|  5.0000e-01|  5.0000e-01|   -4.544491|   -4.586706|   -5.310794|   -5.192822|   -4.830714|   -7.666639|    2.329885|
|         132|  1.0045e+01|  5.4960e-09|  7.7125e-01|  5.0000e-01|  5.0000e-01|  5.0000e-01|   -4.544065|   -4.586150|   -5.310789|   -5.192446|   -4.830186|   -7.666218|    2.330012|
|         133|  1.0049e+01|  5.4960e-09|  7.7125e-01|  5.0000e-01|  5.0000e-01|  5.0000e-01|   -4.543648|   -4.585603|   -5.310785|   -5.192075|   -4.829666|   -7.665796|    2.330140|
|         134|  1.0049e+01|  5.4960e-09|  7.7125e-01|  5.0000e-01|  5.0000e-01|  5.0000e-01|   -4.543236|   -4.585061|   -5.310782|   -5.191711|   -4.829150|   -7.665374|    2.330268|
|         135|  1.0048e+01|  5.4960e-09|  7.7125e-01|  5.0000e-01|  5.0000e-01|  5.0000e-01|   -4.542831|   -4.584527|   -5.310782|   -5.191353|   -4.828640|   -7.664953|    2.330396|
|         136|  1.0047e+01|  5.4961e-09|  7.7125e-01|  5.0000e-01|  5.0000e-01|  5.0000e-01|   -4.542434|   -4.584002|   -5.310787|   -5.191003|   -4.828139|   -7.664530|    2.330525|
|         137|  1.0045e+01|  5.4961e-09|  7.7125e-01|  5.0000e-01|  5.0000e-01|  5.0000e-01|   -4.542046|   -4.583485|   -5.310794|   -5.190660|   -4.827644|   -7.664108|    2.330654|
|         138|  1.0043e+01|  5.4961e-09|  7.7125e-01|  5.0000e-01|  5.0000e-01|  5.0000e-01|   -4.541665|   -4.582976|   -5.310806|   -5.190324|   -4.827155|   -7.663685|    2.330783|
|         139|  1.0043e+01|  5.4961e-09|  7.7125e-01|  5.0000e-01|  5.0000e-01|  5.0000e-01|   -4.541292|   -4.582474|   -5.310822|   -5.189995|   -4.826673|   -7.663263|    2.330913|
|         140|  1.0042e+01|  5.4961e-09|  7.7125e-01|  5.0000e-01|  5.0000e-01|  5.0000e-01|   -4.540926|   -4.581980|   -5.310842|   -5.189672|   -4.826196|   -7.662840|    2.331043|
|         141|  1.0040e+01|  5.4962e-09|  7.7125e-01|  5.0000e-01|  5.0000e-01|  5.0000e-01|   -4.540567|   -4.581493|   -5.310867|   -5.189356|   -4.825726|   -7.662417|    2.331174|
|         142|  1.0038e+01|  5.4962e-09|  7.7125e-01|  5.0000e-01|  5.0000e-01|  5.0000e-01|   -4.540216|   -4.581013|   -5.310896|   -5.189047|   -4.825263|   -7.661995|    2.331305|
|         143|  1.0036e+01|  5.4962e-09|  7.7125e-01|  5.0000e-01|  5.0000e-01|  5.0000e-01|   -4.539871|   -4.580540|   -5.310929|   -5.188744|   -4.824804|   -7.661572|    2.331436|
|         144|  1.0035e+01|  5.4962e-09|  7.7125e-01|  5.0000e-01|  5.0000e-01|  5.0000e-01|   -4.539533|   -4.580075|   -5.310966|   -5.188448|   -4.824352|   -7.661150|    2.331568|
|         145|  1.0040e+01|  5.4962e-09|  7.7125e-01|  5.0000e-01|  5.0000e-01|  5.0000e-01|   -4.539203|   -4.579617|   -5.311008|   -5.188159|   -4.823907|   -7.660728|    2.331700|
|         146|  1.0042e+01|  5.4962e-09|  7.7125e-01|  5.0000e-01|  5.0000e-01|  5.0000e-01|   -4.538880|   -4.579167|   -5.311056|   -5.187877|   -4.823468|   -7.660307|    2.331832|
|         147|  1.0043e+01|  5.4962e-09|  7.7125e-01|  5.0000e-01|  5.0000e-01|  5.0000e-01|   -4.538565|   -4.578723|   -5.311107|   -5.187602|   -4.823034|   -7.659886|    2.331965|
|         148|  1.0045e+01|  5.4962e-09|  7.7125e-01|  5.0000e-01|  5.0000e-01|  5.0000e-01|   -4.538258|   -4.578288|   -5.311162|   -5.187334|   -4.822609|   -7.659465|    2.332098|
|         149|  1.0045e+01|  5.4963e-09|  7.7125e-01|  5.0000e-01|  5.0000e-01|  5.0000e-01|   -4.537964|   -4.577867|   -5.311222|   -5.187074|   -4.822196|   -7.659045|    2.332232|
|         150|  1.0044e+01|  5.4963e-09|  7.7125e-01|  5.0000e-01|  5.0000e-01|  5.0000e-01|   -4.537678|   -4.577454|   -5.311287|   -5.186820|   -4.821790|   -7.658625|    2.332366|
+-----------------------------------------------------------------------+
|        File Writing Summary       |              Filename             |
+-----------------------------------------------------------------------+
|SU2 binary restart                 |restart_flow.dat                   |
|Paraview                           |flow.vtu                           |
|Paraview surface                   |surface_flow.vtu                   |
+-----------------------------------------------------------------------+
+-------------------------------------------------------------------------------------------------------------------------------------------------------------------------------------+
|  Inner_Iter|   Time(sec)|      Min DT|      Max DT|     Min CFL|     Max CFL|     Avg CFL|    rms[Rho]|   rms[RhoU]|   rms[RhoV]|   rms[RhoW]|   rms[RhoE]|     rms[nu]|          CD|
+-------------------------------------------------------------------------------------------------------------------------------------------------------------------------------------+
|         151|  1.0203e+01|  5.4963e-09|  7.7125e-01|  5.0000e-01|  5.0000e-01|  5.0000e-01|   -4.537404|   -4.577052|   -5.311356|   -5.186573|   -4.821395|   -7.658206|    2.332500|
|         152|  1.0206e+01|  5.4963e-09|  7.7125e-01|  5.0000e-01|  5.0000e-01|  5.0000e-01|   -4.537138|   -4.576659|   -5.311432|   -5.186333|   -4.821008|   -7.657787|    2.332635|
|         153|  1.0207e+01|  5.4963e-09|  7.7125e-01|  5.0000e-01|  5.0000e-01|  5.0000e-01|   -4.536880|   -4.576273|   -5.311511|   -5.186101|   -4.820627|   -7.657369|    2.332770|
|         154|  1.0210e+01|  5.4963e-09|  7.7125e-01|  5.0000e-01|  5.0000e-01|  5.0000e-01|   -4.536629|   -4.575895|   -5.311593|   -5.185875|   -4.820251|   -7.656952|    2.332906|
|         155|  1.0210e+01|  5.4963e-09|  7.7125e-01|  5.0000e-01|  5.0000e-01|  5.0000e-01|   -4.536384|   -4.575522|   -5.311679|   -5.185656|   -4.819881|   -7.656536|    2.333042|
|         156|  1.0210e+01|  5.4963e-09|  7.7125e-01|  5.0000e-01|  5.0000e-01|  5.0000e-01|   -4.536146|   -4.575157|   -5.311769|   -5.185443|   -4.819517|   -7.656120|    2.333178|
|         157|  1.0208e+01|  5.4963e-09|  7.7125e-01|  5.0000e-01|  5.0000e-01|  5.0000e-01|   -4.535916|   -4.574798|   -5.311864|   -5.185237|   -4.819158|   -7.655705|    2.333315|
|         158|  1.0207e+01|  5.4963e-09|  7.7125e-01|  5.0000e-01|  5.0000e-01|  5.0000e-01|   -4.535692|   -4.574447|   -5.311963|   -5.185037|   -4.818806|   -7.655291|    2.333452|
|         159|  1.0205e+01|  5.4963e-09|  7.7125e-01|  5.0000e-01|  5.0000e-01|  5.0000e-01|   -4.535475|   -4.574102|   -5.312066|   -5.184844|   -4.818458|   -7.654878|    2.333590|
|         160|  1.0202e+01|  5.4963e-09|  7.7124e-01|  5.0000e-01|  5.0000e-01|  5.0000e-01|   -4.535267|   -4.573766|   -5.312172|   -5.184658|   -4.818119|   -7.654466|    2.333728|
|         161|  1.0201e+01|  5.4963e-09|  7.7124e-01|  5.0000e-01|  5.0000e-01|  5.0000e-01|   -4.535066|   -4.573438|   -5.312282|   -5.184478|   -4.817786|   -7.654054|    2.333866|
|         162|  1.0199e+01|  5.4963e-09|  7.7124e-01|  5.0000e-01|  5.0000e-01|  5.0000e-01|   -4.534872|   -4.573117|   -5.312395|   -5.184304|   -4.817459|   -7.653643|    2.334005|
|         163|  1.0199e+01|  5.4963e-09|  7.7124e-01|  5.0000e-01|  5.0000e-01|  5.0000e-01|   -4.534686|   -4.572804|   -5.312513|   -5.184135|   -4.817140|   -7.653234|    2.334144|
|         164|  1.0197e+01|  5.4963e-09|  7.7124e-01|  5.0000e-01|  5.0000e-01|  5.0000e-01|   -4.534509|   -4.572500|   -5.312635|   -5.183972|   -4.816828|   -7.652826|    2.334283|
|         165|  1.0197e+01|  5.4963e-09|  7.7124e-01|  5.0000e-01|  5.0000e-01|  5.0000e-01|   -4.534339|   -4.572203|   -5.312760|   -5.183815|   -4.816522|   -7.652420|    2.334423|
|         166|  1.0194e+01|  5.4963e-09|  7.7124e-01|  5.0000e-01|  5.0000e-01|  5.0000e-01|   -4.534175|   -4.571913|   -5.312890|   -5.183663|   -4.816222|   -7.652015|    2.334563|
|         167|  1.0190e+01|  5.4963e-09|  7.7124e-01|  5.0000e-01|  5.0000e-01|  5.0000e-01|   -4.534019|   -4.571630|   -5.313025|   -5.183517|   -4.815928|   -7.651611|    2.334704|
|         168|  1.0186e+01|  5.4962e-09|  7.7124e-01|  5.0000e-01|  5.0000e-01|  5.0000e-01|   -4.533868|   -4.571353|   -5.313163|   -5.183376|   -4.815639|   -7.651208|    2.334845|
|         169|  1.0182e+01|  5.4962e-09|  7.7124e-01|  5.0000e-01|  5.0000e-01|  5.0000e-01|   -4.533726|   -4.571084|   -5.313305|   -5.183242|   -4.815358|   -7.650806|    2.334986|
|         170|  1.0178e+01|  5.4962e-09|  7.7124e-01|  5.0000e-01|  5.0000e-01|  5.0000e-01|   -4.533600|   -4.570832|   -5.313456|   -5.183118|   -4.815092|   -7.650406|    2.335127|
|         171|  1.0174e+01|  5.4962e-09|  7.7124e-01|  5.0000e-01|  5.0000e-01|  5.0000e-01|   -4.533482|   -4.570588|   -5.313612|   -5.183001|   -4.814834|   -7.650007|    2.335269|
|         172|  1.0170e+01|  5.4962e-09|  7.7124e-01|  5.0000e-01|  5.0000e-01|  5.0000e-01|   -4.533370|   -4.570351|   -5.313773|   -5.182888|   -4.814582|   -7.649610|    2.335411|
|         173|  1.0171e+01|  5.4962e-09|  7.7124e-01|  5.0000e-01|  5.0000e-01|  5.0000e-01|   -4.533267|   -4.570122|   -5.313943|   -5.182781|   -4.814337|   -7.649214|    2.335553|
|         174|  1.0168e+01|  5.4962e-09|  7.7124e-01|  5.0000e-01|  5.0000e-01|  5.0000e-01|   -4.533169|   -4.569898|   -5.314116|   -5.182679|   -4.814096|   -7.648819|    2.335696|
|         175|  1.0165e+01|  5.4961e-09|  7.7124e-01|  5.0000e-01|  5.0000e-01|  5.0000e-01|   -4.533077|   -4.569680|   -5.314292|   -5.182580|   -4.813861|   -7.648425|    2.335839|
|         176|  1.0162e+01|  5.4961e-09|  7.7124e-01|  5.0000e-01|  5.0000e-01|  5.0000e-01|   -4.532991|   -4.569468|   -5.314471|   -5.182488|   -4.813631|   -7.648033|    2.335982|
|         177|  1.0158e+01|  5.4961e-09|  7.7124e-01|  5.0000e-01|  5.0000e-01|  5.0000e-01|   -4.532912|   -4.569264|   -5.314653|   -5.182400|   -4.813406|   -7.647643|    2.336125|
|         178|  1.0155e+01|  5.4961e-09|  7.7124e-01|  5.0000e-01|  5.0000e-01|  5.0000e-01|   -4.532839|   -4.569065|   -5.314839|   -5.182317|   -4.813187|   -7.647254|    2.336269|
|         179|  1.0151e+01|  5.4961e-09|  7.7124e-01|  5.0000e-01|  5.0000e-01|  5.0000e-01|   -4.532772|   -4.568872|   -5.315028|   -5.182240|   -4.812973|   -7.646866|    2.336413|
|         180|  1.0148e+01|  5.4960e-09|  7.7124e-01|  5.0000e-01|  5.0000e-01|  5.0000e-01|   -4.532715|   -4.568689|   -5.315222|   -5.182168|   -4.812769|   -7.646480|    2.336557|
|         181|  1.0144e+01|  5.4960e-09|  7.7124e-01|  5.0000e-01|  5.0000e-01|  5.0000e-01|   -4.532665|   -4.568513|   -5.315420|   -5.182101|   -4.812571|   -7.646095|    2.336701|
|         182|  1.0141e+01|  5.4960e-09|  7.7124e-01|  5.0000e-01|  5.0000e-01|  5.0000e-01|   -4.532619|   -4.568343|   -5.315620|   -5.182039|   -4.812377|   -7.645712|    2.336846|
|         183|  1.0137e+01|  5.4960e-09|  7.7124e-01|  5.0000e-01|  5.0000e-01|  5.0000e-01|   -4.532580|   -4.568178|   -5.315823|   -5.181982|   -4.812188|   -7.645331|    2.336991|
|         184|  1.0133e+01|  5.4959e-09|  7.7124e-01|  5.0000e-01|  5.0000e-01|  5.0000e-01|   -4.532547|   -4.568019|   -5.316029|   -5.181931|   -4.812005|   -7.644951|    2.337135|
|         185|  1.0129e+01|  5.4959e-09|  7.7124e-01|  5.0000e-01|  5.0000e-01|  5.0000e-01|   -4.532522|   -4.567870|   -5.316239|   -5.181886|   -4.811830|   -7.644573|    2.337281|
|         186|  1.0126e+01|  5.4959e-09|  7.7124e-01|  5.0000e-01|  5.0000e-01|  5.0000e-01|   -4.532505|   -4.567727|   -5.316452|   -5.181847|   -4.811661|   -7.644196|    2.337426|
|         187|  1.0123e+01|  5.4959e-09|  7.7124e-01|  5.0000e-01|  5.0000e-01|  5.0000e-01|   -4.532494|   -4.567592|   -5.316668|   -5.181813|   -4.811499|   -7.643821|    2.337571|
|         188|  1.0122e+01|  5.4958e-09|  7.7124e-01|  5.0000e-01|  5.0000e-01|  5.0000e-01|   -4.532490|   -4.567463|   -5.316888|   -5.181785|   -4.811343|   -7.643448|    2.337717|
|         189|  1.0119e+01|  5.4958e-09|  7.7124e-01|  5.0000e-01|  5.0000e-01|  5.0000e-01|   -4.532494|   -4.567343|   -5.317111|   -5.181763|   -4.811194|   -7.643076|    2.337863|
|         190|  1.0118e+01|  5.4958e-09|  7.7124e-01|  5.0000e-01|  5.0000e-01|  5.0000e-01|   -4.532507|   -4.567232|   -5.317339|   -5.181748|   -4.811055|   -7.642706|    2.338009|
|         191|  1.0117e+01|  5.4957e-09|  7.7124e-01|  5.0000e-01|  5.0000e-01|  5.0000e-01|   -4.532530|   -4.567130|   -5.317571|   -5.181740|   -4.810924|   -7.642338|    2.338155|
|         192|  1.0113e+01|  5.4957e-09|  7.7124e-01|  5.0000e-01|  5.0000e-01|  5.0000e-01|   -4.532560|   -4.567036|   -5.317805|   -5.181737|   -4.810801|   -7.641971|    2.338301|
|         193|  1.0111e+01|  5.4957e-09|  7.7124e-01|  5.0000e-01|  5.0000e-01|  5.0000e-01|   -4.532597|   -4.566950|   -5.318043|   -5.181740|   -4.810685|   -7.641607|    2.338448|
|         194|  1.0108e+01|  5.4956e-09|  7.7124e-01|  5.0000e-01|  5.0000e-01|  5.0000e-01|   -4.532643|   -4.566873|   -5.318284|   -5.181750|   -4.810577|   -7.641244|    2.338594|
|         195|  1.0104e+01|  5.4956e-09|  7.7124e-01|  5.0000e-01|  5.0000e-01|  5.0000e-01|   -4.532698|   -4.566804|   -5.318529|   -5.181766|   -4.810477|   -7.640882|    2.338741|
|         196|  1.0101e+01|  5.4955e-09|  7.7124e-01|  5.0000e-01|  5.0000e-01|  5.0000e-01|   -4.532762|   -4.566746|   -5.318779|   -5.181789|   -4.810387|   -7.640523|    2.338888|
|         197|  1.0097e+01|  5.4955e-09|  7.7124e-01|  5.0000e-01|  5.0000e-01|  5.0000e-01|   -4.532834|   -4.566697|   -5.319032|   -5.181818|   -4.810304|   -7.640165|    2.339034|
|         198|  1.0094e+01|  5.4955e-09|  7.7124e-01|  5.0000e-01|  5.0000e-01|  5.0000e-01|   -4.532918|   -4.566659|   -5.319290|   -5.181855|   -4.810234|   -7.639810|    2.339181|
|         199|  1.0090e+01|  5.4954e-09|  7.7124e-01|  5.0000e-01|  5.0000e-01|  5.0000e-01|   -4.533010|   -4.566629|   -5.319552|   -5.181898|   -4.810169|   -7.639456|    2.339328|
|         200|  1.0086e+01|  5.4954e-09|  7.7124e-01|  5.0000e-01|  5.0000e-01|  5.0000e-01|   -4.533111|   -4.566609|   -5.319817|   -5.181949|   -4.810115|   -7.639104|    2.339476|
|         201|  1.0083e+01|  5.4953e-09|  7.7124e-01|  5.0000e-01|  5.0000e-01|  5.0000e-01|   -4.533220|   -4.566597|   -5.320083|   -5.182007|   -4.810067|   -7.638753|    2.339623|
|         202|  1.0079e+01|  5.4953e-09|  7.7124e-01|  5.0000e-01|  5.0000e-01|  5.0000e-01|   -4.533337|   -4.566593|   -5.320353|   -5.182071|   -4.810027|   -7.638405|    2.339770|
|         203|  1.0078e+01|  5.4952e-09|  7.7124e-01|  5.0000e-01|  5.0000e-01|  5.0000e-01|   -4.533462|   -4.566598|   -5.320626|   -5.182142|   -4.809994|   -7.638059|    2.339918|
|         204|  1.0077e+01|  5.4952e-09|  7.7124e-01|  5.0000e-01|  5.0000e-01|  5.0000e-01|   -4.533594|   -4.566610|   -5.320901|   -5.182220|   -4.809968|   -7.637714|    2.340065|
|         205|  1.0073e+01|  5.4951e-09|  7.7124e-01|  5.0000e-01|  5.0000e-01|  5.0000e-01|   -4.533735|   -4.566631|   -5.321182|   -5.182305|   -4.809951|   -7.637371|    2.340213|
|         206|  1.0072e+01|  5.4951e-09|  7.7124e-01|  5.0000e-01|  5.0000e-01|  5.0000e-01|   -4.533890|   -4.566668|   -5.321478|   -5.182404|   -4.809949|   -7.637031|    2.340361|
|         207|  1.0070e+01|  5.4950e-09|  7.7124e-01|  5.0000e-01|  5.0000e-01|  5.0000e-01|   -4.534054|   -4.566714|   -5.321777|   -5.182510|   -4.809955|   -7.636692|    2.340508|
|         208|  1.0067e+01|  5.4950e-09|  7.7124e-01|  5.0000e-01|  5.0000e-01|  5.0000e-01|   -4.534226|   -4.566768|   -5.322079|   -5.182623|   -4.809969|   -7.636355|    2.340656|
|         209|  1.0064e+01|  5.4949e-09|  7.7124e-01|  5.0000e-01|  5.0000e-01|  5.0000e-01|   -4.534406|   -4.566831|   -5.322384|   -5.182745|   -4.809991|   -7.636020|    2.340804|
|         210|  1.0062e+01|  5.4949e-09|  7.7124e-01|  5.0000e-01|  5.0000e-01|  5.0000e-01|   -4.534596|   -4.566905|   -5.322692|   -5.182874|   -4.810023|   -7.635687|    2.340952|
|         211|  1.0060e+01|  5.4948e-09|  7.7124e-01|  5.0000e-01|  5.0000e-01|  5.0000e-01|   -4.534798|   -4.566991|   -5.323001|   -5.183010|   -4.810066|   -7.635356|    2.341100|
|         212|  1.0057e+01|  5.4948e-09|  7.7124e-01|  5.0000e-01|  5.0000e-01|  5.0000e-01|   -4.535007|   -4.567084|   -5.323313|   -5.183155|   -4.810116|   -7.635027|    2.341248|
|         213|  1.0054e+01|  5.4947e-09|  7.7124e-01|  5.0000e-01|  5.0000e-01|  5.0000e-01|   -4.535223|   -4.567186|   -5.323628|   -5.183308|   -4.810174|   -7.634700|    2.341397|
|         214|  1.0052e+01|  5.4947e-09|  7.7124e-01|  5.0000e-01|  5.0000e-01|  5.0000e-01|   -4.535448|   -4.567297|   -5.323946|   -5.183468|   -4.810240|   -7.634375|    2.341545|
|         215|  1.0053e+01|  5.4946e-09|  7.7124e-01|  5.0000e-01|  5.0000e-01|  5.0000e-01|   -4.535682|   -4.567416|   -5.324267|   -5.183637|   -4.810314|   -7.634053|    2.341693|
|         216|  1.0056e+01|  5.4945e-09|  7.7124e-01|  5.0000e-01|  5.0000e-01|  5.0000e-01|   -4.535921|   -4.567542|   -5.324589|   -5.183813|   -4.810393|   -7.633732|    2.341842|
|         217|  1.0055e+01|  5.4945e-09|  7.7124e-01|  5.0000e-01|  5.0000e-01|  5.0000e-01|   -4.536169|   -4.567676|   -5.324913|   -5.183998|   -4.810481|   -7.633413|    2.341990|
|         218|  1.0054e+01|  5.4944e-09|  7.7124e-01|  5.0000e-01|  5.0000e-01|  5.0000e-01|   -4.536426|   -4.567820|   -5.325242|   -5.184191|   -4.810578|   -7.633096|    2.342139|
|         219|  1.0052e+01|  5.4941e-09|  7.7124e-01|  5.0000e-01|  5.0000e-01|  5.0000e-01|   -4.536690|   -4.567973|   -5.325572|   -5.184392|   -4.810683|   -7.632781|    2.342287|
|         220|  1.0049e+01|  5.4938e-09|  7.7124e-01|  5.0000e-01|  5.0000e-01|  5.0000e-01|   -4.536964|   -4.568135|   -5.325906|   -5.184600|   -4.810796|   -7.632468|    2.342436|
|         221|  1.0047e+01|  5.4934e-09|  7.7124e-01|  5.0000e-01|  5.0000e-01|  5.0000e-01|   -4.537246|   -4.568307|   -5.326243|   -5.184816|   -4.810919|   -7.632157|    2.342585|
|         222|  1.0044e+01|  5.4931e-09|  7.7124e-01|  5.0000e-01|  5.0000e-01|  5.0000e-01|   -4.537538|   -4.568489|   -5.326582|   -5.185040|   -4.811051|   -7.631849|    2.342734|
|         223|  1.0041e+01|  5.4927e-09|  7.7124e-01|  5.0000e-01|  5.0000e-01|  5.0000e-01|   -4.537838|   -4.568680|   -5.326924|   -5.185271|   -4.811192|   -7.631542|    2.342883|
|         224|  1.0038e+01|  5.4924e-09|  7.7124e-01|  5.0000e-01|  5.0000e-01|  5.0000e-01|   -4.538147|   -4.568881|   -5.327270|   -5.185511|   -4.811342|   -7.631238|    2.343031|
|         225|  1.0037e+01|  5.4920e-09|  7.7124e-01|  5.0000e-01|  5.0000e-01|  5.0000e-01|   -4.538466|   -4.569093|   -5.327618|   -5.185760|   -4.811503|   -7.630935|    2.343181|
|         226|  1.0034e+01|  5.4917e-09|  7.7124e-01|  5.0000e-01|  5.0000e-01|  5.0000e-01|   -4.538797|   -4.569316|   -5.327969|   -5.186019|   -4.811674|   -7.630636|    2.343330|
|         227|  1.0032e+01|  5.4913e-09|  7.7124e-01|  5.0000e-01|  5.0000e-01|  5.0000e-01|   -4.539135|   -4.569549|   -5.328324|   -5.186286|   -4.811855|   -7.630338|    2.343479|
|         228|  1.0030e+01|  5.4910e-09|  7.7123e-01|  5.0000e-01|  5.0000e-01|  5.0000e-01|   -4.539484|   -4.569792|   -5.328683|   -5.186561|   -4.812045|   -7.630043|    2.343628|
|         229|  1.0027e+01|  5.4906e-09|  7.7123e-01|  5.0000e-01|  5.0000e-01|  5.0000e-01|   -4.539841|   -4.570046|   -5.329044|   -5.186844|   -4.812246|   -7.629749|    2.343778|
|         230|  1.0025e+01|  5.4903e-09|  7.7123e-01|  5.0000e-01|  5.0000e-01|  5.0000e-01|   -4.540209|   -4.570311|   -5.329410|   -5.187137|   -4.812456|   -7.629458|    2.343927|
|         231|  1.0023e+01|  5.4899e-09|  7.7123e-01|  5.0000e-01|  5.0000e-01|  5.0000e-01|   -4.540586|   -4.570585|   -5.329782|   -5.187438|   -4.812677|   -7.629168|    2.344076|
|         232|  1.0022e+01|  5.4896e-09|  7.7123e-01|  5.0000e-01|  5.0000e-01|  5.0000e-01|   -4.540971|   -4.570869|   -5.330157|   -5.187748|   -4.812907|   -7.628881|    2.344226|
|         233|  1.0021e+01|  5.4892e-09|  7.7123e-01|  5.0000e-01|  5.0000e-01|  5.0000e-01|   -4.541366|   -4.571163|   -5.330534|   -5.188065|   -4.813146|   -7.628596|    2.344376|
|         234|  1.0020e+01|  5.4889e-09|  7.7123e-01|  5.0000e-01|  5.0000e-01|  5.0000e-01|   -4.541770|   -4.571467|   -5.330915|   -5.188390|   -4.813394|   -7.628313|    2.344526|
|         235|  1.0019e+01|  5.4885e-09|  7.7123e-01|  5.0000e-01|  5.0000e-01|  5.0000e-01|   -4.542183|   -4.571781|   -5.331301|   -5.188723|   -4.813652|   -7.628031|    2.344675|
|         236|  1.0018e+01|  5.4882e-09|  7.7123e-01|  5.0000e-01|  5.0000e-01|  5.0000e-01|   -4.542605|   -4.572105|   -5.331691|   -5.189064|   -4.813921|   -7.627752|    2.344825|
|         237|  1.0018e+01|  5.4878e-09|  7.7123e-01|  5.0000e-01|  5.0000e-01|  5.0000e-01|   -4.543036|   -4.572438|   -5.332084|   -5.189413|   -4.814198|   -7.627475|    2.344975|
|         238|  1.0017e+01|  5.4875e-09|  7.7123e-01|  5.0000e-01|  5.0000e-01|  5.0000e-01|   -4.543472|   -4.572777|   -5.332480|   -5.189767|   -4.814480|   -7.627199|    2.345126|
|         239|  1.0016e+01|  5.4871e-09|  7.7123e-01|  5.0000e-01|  5.0000e-01|  5.0000e-01|   -4.543922|   -4.573130|   -5.332883|   -5.190131|   -4.814777|   -7.626926|    2.345276|
|         240|  1.0014e+01|  5.4868e-09|  7.7123e-01|  5.0000e-01|  5.0000e-01|  5.0000e-01|   -4.544383|   -4.573496|   -5.333293|   -5.190505|   -4.815085|   -7.626655|    2.345426|
|         241|  1.0013e+01|  5.4864e-09|  7.7123e-01|  5.0000e-01|  5.0000e-01|  5.0000e-01|   -4.544853|   -4.573871|   -5.333704|   -5.190886|   -4.815403|   -7.626386|    2.345577|
|         242|  1.0013e+01|  5.4861e-09|  7.7123e-01|  5.0000e-01|  5.0000e-01|  5.0000e-01|   -4.545337|   -4.574260|   -5.334115|   -5.191284|   -4.815735|   -7.626120|    2.345727|
|         243|  1.0011e+01|  5.4857e-09|  7.7123e-01|  5.0000e-01|  5.0000e-01|  5.0000e-01|   -4.545830|   -4.574658|   -5.334529|   -5.191689|   -4.816075|   -7.625855|    2.345878|
|         244|  1.0008e+01|  5.4854e-09|  7.7123e-01|  5.0000e-01|  5.0000e-01|  5.0000e-01|   -4.546331|   -4.575067|   -5.334944|   -5.192102|   -4.816425|   -7.625591|    2.346029|
|         245|  1.0007e+01|  5.4850e-09|  7.7123e-01|  5.0000e-01|  5.0000e-01|  5.0000e-01|   -4.546841|   -4.575484|   -5.335361|   -5.192521|   -4.816783|   -7.625330|    2.346180|
|         246|  1.0005e+01|  5.4847e-09|  7.7123e-01|  5.0000e-01|  5.0000e-01|  5.0000e-01|   -4.547360|   -4.575910|   -5.335780|   -5.192947|   -4.817150|   -7.625069|    2.346331|
|         247|  1.0002e+01|  5.4843e-09|  7.7123e-01|  5.0000e-01|  5.0000e-01|  5.0000e-01|   -4.547886|   -4.576345|   -5.336201|   -5.193379|   -4.817524|   -7.624810|    2.346482|
|         248|  9.9996e+00|  5.4840e-09|  7.7123e-01|  5.0000e-01|  5.0000e-01|  5.0000e-01|   -4.548419|   -4.576788|   -5.336622|   -5.193818|   -4.817906|   -7.624555|    2.346633|
|         249|  9.9981e+00|  5.4836e-09|  7.7123e-01|  5.0000e-01|  5.0000e-01|  5.0000e-01|   -4.548959|   -4.577238|   -5.337044|   -5.194263|   -4.818295|   -7.624302|    2.346784|
|         250|  9.9962e+00|  5.4833e-09|  7.7123e-01|  5.0000e-01|  5.0000e-01|  5.0000e-01|   -4.549507|   -4.577697|   -5.337468|   -5.194713|   -4.818692|   -7.624052|    2.346936|
|         251|  9.9939e+00|  5.4829e-09|  7.7123e-01|  5.0000e-01|  5.0000e-01|  5.0000e-01|   -4.550063|   -4.578164|   -5.337894|   -5.195170|   -4.819096|   -7.623804|    2.347088|
|         252|  9.9916e+00|  5.4826e-09|  7.7123e-01|  5.0000e-01|  5.0000e-01|  5.0000e-01|   -4.550624|   -4.578638|   -5.338322|   -5.195634|   -4.819506|   -7.623558|    2.347239|
|         253|  9.9917e+00|  5.4822e-09|  7.7123e-01|  5.0000e-01|  5.0000e-01|  5.0000e-01|   -4.551193|   -4.579119|   -5.338751|   -5.196102|   -4.819924|   -7.623315|    2.347391|
|         254|  9.9898e+00|  5.4819e-09|  7.7123e-01|  5.0000e-01|  5.0000e-01|  5.0000e-01|   -4.551769|   -4.579608|   -5.339182|   -5.196578|   -4.820348|   -7.623075|    2.347543|
|         255|  9.9872e+00|  5.4815e-09|  7.7123e-01|  5.0000e-01|  5.0000e-01|  5.0000e-01|   -4.552352|   -4.580106|   -5.339615|   -5.197059|   -4.820780|   -7.622836|    2.347695|
|         256|  9.9856e+00|  5.4812e-09|  7.7123e-01|  5.0000e-01|  5.0000e-01|  5.0000e-01|   -4.552941|   -4.580610|   -5.340048|   -5.197546|   -4.821218|   -7.622600|    2.347848|
|         257|  9.9839e+00|  5.4808e-09|  7.7123e-01|  5.0000e-01|  5.0000e-01|  5.0000e-01|   -4.553533|   -4.581117|   -5.340480|   -5.198036|   -4.821659|   -7.622366|    2.348000|
|         258|  9.9812e+00|  5.4804e-09|  7.7123e-01|  5.0000e-01|  5.0000e-01|  5.0000e-01|   -4.554133|   -4.581632|   -5.340914|   -5.198530|   -4.822107|   -7.622135|    2.348153|
|         259|  9.9786e+00|  5.4801e-09|  7.7123e-01|  5.0000e-01|  5.0000e-01|  5.0000e-01|   -4.554740|   -4.582155|   -5.341350|   -5.199031|   -4.822562|   -7.621905|    2.348305|
|         260|  9.9764e+00|  5.4797e-09|  7.7123e-01|  5.0000e-01|  5.0000e-01|  5.0000e-01|   -4.555353|   -4.582685|   -5.341788|   -5.199536|   -4.823023|   -7.621678|    2.348458|
|         261|  9.9749e+00|  5.4794e-09|  7.7123e-01|  5.0000e-01|  5.0000e-01|  5.0000e-01|   -4.555973|   -4.583222|   -5.342228|   -5.200047|   -4.823492|   -7.621453|    2.348611|
|         262|  9.9730e+00|  5.4790e-09|  7.7123e-01|  5.0000e-01|  5.0000e-01|  5.0000e-01|   -4.556600|   -4.583766|   -5.342669|   -5.200563|   -4.823966|   -7.621231|    2.348764|
|         263|  9.9705e+00|  5.4787e-09|  7.7123e-01|  5.0000e-01|  5.0000e-01|  5.0000e-01|   -4.557233|   -4.584317|   -5.343113|   -5.201085|   -4.824448|   -7.621010|    2.348917|
|         264|  9.9703e+00|  5.4783e-09|  7.7123e-01|  5.0000e-01|  5.0000e-01|  5.0000e-01|   -4.557872|   -4.584875|   -5.343559|   -5.201613|   -4.824935|   -7.620792|    2.349071|
|         265|  9.9691e+00|  5.4780e-09|  7.7123e-01|  5.0000e-01|  5.0000e-01|  5.0000e-01|   -4.558518|   -4.585441|   -5.344007|   -5.202146|   -4.825430|   -7.620576|    2.349224|
|         266|  9.9678e+00|  5.4776e-09|  7.7123e-01|  5.0000e-01|  5.0000e-01|  5.0000e-01|   -4.559170|   -4.586012|   -5.344457|   -5.202685|   -4.825929|   -7.620362|    2.349378|
|         267|  9.9664e+00|  5.4773e-09|  7.7123e-01|  5.0000e-01|  5.0000e-01|  5.0000e-01|   -4.559828|   -4.586591|   -5.344909|   -5.203230|   -4.826436|   -7.620150|    2.349532|
|         268|  9.9647e+00|  5.4769e-09|  7.7123e-01|  5.0000e-01|  5.0000e-01|  5.0000e-01|   -4.560495|   -4.587178|   -5.345365|   -5.203780|   -4.826951|   -7.619940|    2.349686|
|         269|  9.9623e+00|  5.4766e-09|  7.7123e-01|  5.0000e-01|  5.0000e-01|  5.0000e-01|   -4.561168|   -4.587772|   -5.345823|   -5.204336|   -4.827473|   -7.619733|    2.349840|
|         270|  9.9606e+00|  5.4762e-09|  7.7123e-01|  5.0000e-01|  5.0000e-01|  5.0000e-01|   -4.561847|   -4.588373|   -5.346282|   -5.204897|   -4.828001|   -7.619527|    2.349995|
|         271|  9.9591e+00|  5.4759e-09|  7.7123e-01|  5.0000e-01|  5.0000e-01|  5.0000e-01|   -4.562532|   -4.588981|   -5.346742|   -5.205463|   -4.828535|   -7.619324|    2.350149|
|         272|  9.9566e+00|  5.4755e-09|  7.7123e-01|  5.0000e-01|  5.0000e-01|  5.0000e-01|   -4.563223|   -4.589594|   -5.347205|   -5.206035|   -4.829074|   -7.619123|    2.350304|
|         273|  9.9545e+00|  5.4752e-09|  7.7123e-01|  5.0000e-01|  5.0000e-01|  5.0000e-01|   -4.563921|   -4.590215|   -5.347668|   -5.206612|   -4.829621|   -7.618925|    2.350459|
|         274|  9.9523e+00|  5.4748e-09|  7.7123e-01|  5.0000e-01|  5.0000e-01|  5.0000e-01|   -4.564624|   -4.590842|   -5.348132|   -5.207195|   -4.830172|   -7.618728|    2.350614|
|         275|  9.9508e+00|  5.4745e-09|  7.7123e-01|  5.0000e-01|  5.0000e-01|  5.0000e-01|   -4.565333|   -4.591475|   -5.348595|   -5.207782|   -4.830730|   -7.618534|    2.350769|
|         276|  9.9512e+00|  5.4742e-09|  7.7123e-01|  5.0000e-01|  5.0000e-01|  5.0000e-01|   -4.566047|   -4.592114|   -5.349060|   -5.208374|   -4.831293|   -7.618342|    2.350924|
|         277|  9.9502e+00|  5.4738e-09|  7.7123e-01|  5.0000e-01|  5.0000e-01|  5.0000e-01|   -4.566767|   -4.592759|   -5.349525|   -5.208972|   -4.831862|   -7.618152|    2.351080|
|         278|  9.9511e+00|  5.4735e-09|  7.7123e-01|  5.0000e-01|  5.0000e-01|  5.0000e-01|   -4.567494|   -4.593411|   -5.349993|   -5.209574|   -4.832437|   -7.617964|    2.351235|
|         279|  9.9499e+00|  5.4731e-09|  7.7123e-01|  5.0000e-01|  5.0000e-01|  5.0000e-01|   -4.568226|   -4.594071|   -5.350462|   -5.210183|   -4.833018|   -7.617779|    2.351391|
|         280|  9.9489e+00|  5.4728e-09|  7.7123e-01|  5.0000e-01|  5.0000e-01|  5.0000e-01|   -4.568966|   -4.594736|   -5.350934|   -5.210796|   -4.833606|   -7.617595|    2.351547|
|         281|  9.9475e+00|  5.4724e-09|  7.7123e-01|  5.0000e-01|  5.0000e-01|  5.0000e-01|   -4.569711|   -4.595408|   -5.351406|   -5.211415|   -4.834200|   -7.617414|    2.351703|
|         282|  9.9464e+00|  5.4721e-09|  7.7123e-01|  5.0000e-01|  5.0000e-01|  5.0000e-01|   -4.570466|   -4.596089|   -5.351881|   -5.212050|   -4.834803|   -7.617235|    2.351860|
|         283|  9.9453e+00|  5.4717e-09|  7.7123e-01|  5.0000e-01|  5.0000e-01|  5.0000e-01|   -4.571227|   -4.596777|   -5.352357|   -5.212694|   -4.835413|   -7.617058|    2.352016|
|         284|  9.9433e+00|  5.4714e-09|  7.7123e-01|  5.0000e-01|  5.0000e-01|  5.0000e-01|   -4.571994|   -4.597472|   -5.352832|   -5.213342|   -4.836029|   -7.616883|    2.352173|
|         285|  9.9417e+00|  5.4711e-09|  7.7123e-01|  5.0000e-01|  5.0000e-01|  5.0000e-01|   -4.572768|   -4.598173|   -5.353307|   -5.213995|   -4.836651|   -7.616710|    2.352330|
|         286|  9.9395e+00|  5.4707e-09|  7.7123e-01|  5.0000e-01|  5.0000e-01|  5.0000e-01|   -4.573546|   -4.598880|   -5.353781|   -5.214652|   -4.837277|   -7.616539|    2.352487|
|         287|  9.9384e+00|  5.4704e-09|  7.7123e-01|  5.0000e-01|  5.0000e-01|  5.0000e-01|   -4.574330|   -4.599593|   -5.354256|   -5.215313|   -4.837909|   -7.616370|    2.352644|
|         288|  9.9365e+00|  5.4700e-09|  7.7123e-01|  5.0000e-01|  5.0000e-01|  5.0000e-01|   -4.575119|   -4.600310|   -5.354731|   -5.215978|   -4.838545|   -7.616203|    2.352801|
|         289|  9.9349e+00|  5.4697e-09|  7.7122e-01|  5.0000e-01|  5.0000e-01|  5.0000e-01|   -4.575912|   -4.601034|   -5.355205|   -5.216646|   -4.839186|   -7.616039|    2.352959|
|         290|  9.9346e+00|  5.4694e-09|  7.7122e-01|  5.0000e-01|  5.0000e-01|  5.0000e-01|   -4.576711|   -4.601762|   -5.355680|   -5.217318|   -4.839831|   -7.615876|    2.353116|
|         291|  9.9347e+00|  5.4690e-09|  7.7122e-01|  5.0000e-01|  5.0000e-01|  5.0000e-01|   -4.577513|   -4.602495|   -5.356157|   -5.217994|   -4.840481|   -7.615716|    2.353274|
|         292|  9.9334e+00|  5.4687e-09|  7.7122e-01|  5.0000e-01|  5.0000e-01|  5.0000e-01|   -4.578321|   -4.603234|   -5.356633|   -5.218675|   -4.841135|   -7.615557|    2.353432|
|         293|  9.9316e+00|  5.4683e-09|  7.7122e-01|  5.0000e-01|  5.0000e-01|  5.0000e-01|   -4.579133|   -4.603978|   -5.357111|   -5.219358|   -4.841793|   -7.615401|    2.353590|
|         294|  9.9308e+00|  5.4680e-09|  7.7122e-01|  5.0000e-01|  5.0000e-01|  5.0000e-01|   -4.579950|   -4.604727|   -5.357589|   -5.220045|   -4.842456|   -7.615247|    2.353749|
|         295|  9.9296e+00|  5.4677e-09|  7.7122e-01|  5.0000e-01|  5.0000e-01|  5.0000e-01|   -4.580772|   -4.605481|   -5.358066|   -5.220735|   -4.843124|   -7.615095|    2.353907|
|         296|  9.9279e+00|  5.4673e-09|  7.7122e-01|  5.0000e-01|  5.0000e-01|  5.0000e-01|   -4.581598|   -4.606241|   -5.358543|   -5.221430|   -4.843796|   -7.614945|    2.354066|
|         297|  9.9263e+00|  5.4670e-09|  7.7122e-01|  5.0000e-01|  5.0000e-01|  5.0000e-01|   -4.582430|   -4.607006|   -5.359022|   -5.222130|   -4.844473|   -7.614797|    2.354224|
|         298|  9.9252e+00|  5.4667e-09|  7.7122e-01|  5.0000e-01|  5.0000e-01|  5.0000e-01|   -4.583266|   -4.607776|   -5.359500|   -5.222833|   -4.845155|   -7.614651|    2.354383|
|         299|  9.9238e+00|  5.4663e-09|  7.7122e-01|  5.0000e-01|  5.0000e-01|  5.0000e-01|   -4.584106|   -4.608551|   -5.359979|   -5.223538|   -4.845840|   -7.614507|    2.354542|
|         300|  9.9216e+00|  5.4660e-09|  7.7122e-01|  5.0000e-01|  5.0000e-01|  5.0000e-01|   -4.584951|   -4.609331|   -5.360457|   -5.224246|   -4.846528|   -7.614366|    2.354701|
+-----------------------------------------------------------------------+
|        File Writing Summary       |              Filename             |
+-----------------------------------------------------------------------+
|SU2 binary restart                 |restart_flow.dat                   |
|Paraview                           |flow.vtu                           |
|Paraview surface                   |surface_flow.vtu                   |
+-----------------------------------------------------------------------+
+-------------------------------------------------------------------------------------------------------------------------------------------------------------------------------------+
|  Inner_Iter|   Time(sec)|      Min DT|      Max DT|     Min CFL|     Max CFL|     Avg CFL|    rms[Rho]|   rms[RhoU]|   rms[RhoV]|   rms[RhoW]|   rms[RhoE]|     rms[nu]|          CD|
+-------------------------------------------------------------------------------------------------------------------------------------------------------------------------------------+
|         301|  9.9942e+00|  5.4657e-09|  7.7122e-01|  5.0000e-01|  5.0000e-01|  5.0000e-01|   -4.585800|   -4.610115|   -5.360937|   -5.224958|   -4.847221|   -7.614226|    2.354860|
|         302|  9.9950e+00|  5.4654e-09|  7.7122e-01|  5.0000e-01|  5.0000e-01|  5.0000e-01|   -4.586657|   -4.610908|   -5.361424|   -5.225675|   -4.847922|   -7.614089|    2.355020|
|         303|  9.9938e+00|  5.4650e-09|  7.7122e-01|  5.0000e-01|  5.0000e-01|  5.0000e-01|   -4.587519|   -4.611706|   -5.361912|   -5.226396|   -4.848627|   -7.613954|    2.355179|
|         304|  9.9920e+00|  5.4647e-09|  7.7122e-01|  5.0000e-01|  5.0000e-01|  5.0000e-01|   -4.588385|   -4.612508|   -5.362398|   -5.227119|   -4.849335|   -7.613821|    2.355339|
|         305|  9.9907e+00|  5.4644e-09|  7.7122e-01|  5.0000e-01|  5.0000e-01|  5.0000e-01|   -4.589253|   -4.613314|   -5.362884|   -5.227845|   -4.850046|   -7.613690|    2.355498|
|         306|  9.9893e+00|  5.4641e-09|  7.7122e-01|  5.0000e-01|  5.0000e-01|  5.0000e-01|   -4.590124|   -4.614123|   -5.363369|   -5.228574|   -4.850759|   -7.613562|    2.355658|
|         307|  9.9880e+00|  5.4637e-09|  7.7122e-01|  5.0000e-01|  5.0000e-01|  5.0000e-01|   -4.590999|   -4.614936|   -5.363854|   -5.229305|   -4.851476|   -7.613435|    2.355818|
|         308|  9.9862e+00|  5.4634e-09|  7.7122e-01|  5.0000e-01|  5.0000e-01|  5.0000e-01|   -4.591876|   -4.615752|   -5.364338|   -5.230038|   -4.852195|   -7.613311|    2.355978|
|         309|  9.9846e+00|  5.4631e-09|  7.7122e-01|  5.0000e-01|  5.0000e-01|  5.0000e-01|   -4.592757|   -4.616572|   -5.364823|   -5.230774|   -4.852917|   -7.613189|    2.356138|
|         310|  9.9832e+00|  5.4628e-09|  7.7122e-01|  5.0000e-01|  5.0000e-01|  5.0000e-01|   -4.593641|   -4.617396|   -5.365307|   -5.231513|   -4.853642|   -7.613068|    2.356298|
|         311|  9.9819e+00|  5.4624e-09|  7.7122e-01|  5.0000e-01|  5.0000e-01|  5.0000e-01|   -4.594526|   -4.618222|   -5.365791|   -5.232255|   -4.854368|   -7.612950|    2.356458|
|         312|  9.9799e+00|  5.4621e-09|  7.7122e-01|  5.0000e-01|  5.0000e-01|  5.0000e-01|   -4.595414|   -4.619051|   -5.366273|   -5.232999|   -4.855096|   -7.612834|    2.356619|
|         313|  9.9785e+00|  5.4618e-09|  7.7122e-01|  5.0000e-01|  5.0000e-01|  5.0000e-01|   -4.596305|   -4.619883|   -5.366757|   -5.233745|   -4.855827|   -7.612719|    2.356779|
|         314|  9.9781e+00|  5.4615e-09|  7.7122e-01|  5.0000e-01|  5.0000e-01|  5.0000e-01|   -4.597199|   -4.620719|   -5.367240|   -5.234493|   -4.856560|   -7.612606|    2.356940|
|         315|  9.9768e+00|  5.4612e-09|  7.7122e-01|  5.0000e-01|  5.0000e-01|  5.0000e-01|   -4.598095|   -4.621557|   -5.367725|   -5.235243|   -4.857296|   -7.612496|    2.357100|
|         316|  9.9753e+00|  5.4609e-09|  7.7122e-01|  5.0000e-01|  5.0000e-01|  5.0000e-01|   -4.598995|   -4.622399|   -5.368211|   -5.235995|   -4.858034|   -7.612387|    2.357261|
|         317|  9.9735e+00|  5.4606e-09|  7.7122e-01|  5.0000e-01|  5.0000e-01|  5.0000e-01|   -4.599897|   -4.623244|   -5.368698|   -5.236750|   -4.858776|   -7.612280|    2.357421|
|         318|  9.9713e+00|  5.4602e-09|  7.7122e-01|  5.0000e-01|  5.0000e-01|  5.0000e-01|   -4.600803|   -4.624093|   -5.369187|   -5.237509|   -4.859520|   -7.612175|    2.357582|
|         319|  9.9696e+00|  5.4599e-09|  7.7122e-01|  5.0000e-01|  5.0000e-01|  5.0000e-01|   -4.601713|   -4.624946|   -5.369678|   -5.238270|   -4.860268|   -7.612071|    2.357742|
|         320|  9.9676e+00|  5.4596e-09|  7.7122e-01|  5.0000e-01|  5.0000e-01|  5.0000e-01|   -4.602626|   -4.625802|   -5.370171|   -5.239034|   -4.861019|   -7.611969|    2.357903|
|         321|  9.9666e+00|  5.4593e-09|  7.7122e-01|  5.0000e-01|  5.0000e-01|  5.0000e-01|   -4.603541|   -4.626661|   -5.370664|   -5.239799|   -4.861772|   -7.611869|    2.358064|
|         322|  9.9648e+00|  5.4590e-09|  7.7122e-01|  5.0000e-01|  5.0000e-01|  5.0000e-01|   -4.604460|   -4.627524|   -5.371158|   -5.240567|   -4.862529|   -7.611771|    2.358225|
|         323|  9.9628e+00|  5.4587e-09|  7.7122e-01|  5.0000e-01|  5.0000e-01|  5.0000e-01|   -4.605382|   -4.628391|   -5.371652|   -5.241338|   -4.863289|   -7.611674|    2.358385|
|         324|  9.9607e+00|  5.4584e-09|  7.7122e-01|  5.0000e-01|  5.0000e-01|  5.0000e-01|   -4.606308|   -4.629261|   -5.372148|   -5.242110|   -4.864051|   -7.611579|    2.358546|
|         325|  9.9590e+00|  5.4581e-09|  7.7122e-01|  5.0000e-01|  5.0000e-01|  5.0000e-01|   -4.607236|   -4.630134|   -5.372646|   -5.242886|   -4.864817|   -7.611484|    2.358707|
|         326|  9.9581e+00|  5.4578e-09|  7.7122e-01|  5.0000e-01|  5.0000e-01|  5.0000e-01|   -4.608167|   -4.631010|   -5.373145|   -5.243664|   -4.865585|   -7.611387|    2.358868|
|         327|  9.9569e+00|  5.4575e-09|  7.7122e-01|  5.0000e-01|  5.0000e-01|  5.0000e-01|   -4.609101|   -4.631890|   -5.373645|   -5.244444|   -4.866356|   -7.611293|    2.359029|
|         328|  9.9551e+00|  5.4572e-09|  7.7122e-01|  5.0000e-01|  5.0000e-01|  5.0000e-01|   -4.610038|   -4.632772|   -5.374146|   -5.245227|   -4.867130|   -7.611200|    2.359189|
|         329|  9.9527e+00|  5.4569e-09|  7.7122e-01|  5.0000e-01|  5.0000e-01|  5.0000e-01|   -4.610977|   -4.633658|   -5.374648|   -5.246012|   -4.867907|   -7.611109|    2.359350|
|         330|  9.9514e+00|  5.4566e-09|  7.7122e-01|  5.0000e-01|  5.0000e-01|  5.0000e-01|   -4.611920|   -4.634548|   -5.375150|   -5.246800|   -4.868687|   -7.611020|    2.359511|
|         331|  9.9498e+00|  5.4563e-09|  7.7122e-01|  5.0000e-01|  5.0000e-01|  5.0000e-01|   -4.612866|   -4.635441|   -5.375653|   -5.247590|   -4.869471|   -7.610932|    2.359672|
|         332|  9.9477e+00|  5.4560e-09|  7.7122e-01|  5.0000e-01|  5.0000e-01|  5.0000e-01|   -4.613816|   -4.636338|   -5.376157|   -5.248384|   -4.870258|   -7.610847|    2.359833|
|         333|  9.9458e+00|  5.4557e-09|  7.7122e-01|  5.0000e-01|  5.0000e-01|  5.0000e-01|   -4.614768|   -4.637239|   -5.376663|   -5.249180|   -4.871048|   -7.610763|    2.359993|
|         334|  9.9446e+00|  5.4554e-09|  7.7122e-01|  5.0000e-01|  5.0000e-01|  5.0000e-01|   -4.615724|   -4.638143|   -5.377169|   -5.249980|   -4.871841|   -7.610680|    2.360154|
|         335|  9.9432e+00|  5.4552e-09|  7.7122e-01|  5.0000e-01|  5.0000e-01|  5.0000e-01|   -4.616684|   -4.639052|   -5.377676|   -5.250784|   -4.872639|   -7.610600|    2.360315|
|         336|  9.9409e+00|  5.4549e-09|  7.7122e-01|  5.0000e-01|  5.0000e-01|  5.0000e-01|   -4.617649|   -4.639966|   -5.378183|   -5.251593|   -4.873441|   -7.610520|    2.360475|
|         337|  9.9389e+00|  5.4546e-09|  7.7122e-01|  5.0000e-01|  5.0000e-01|  5.0000e-01|   -4.618617|   -4.640884|   -5.378691|   -5.252404|   -4.874247|   -7.610443|    2.360636|
|         338|  9.9373e+00|  5.4543e-09|  7.7122e-01|  5.0000e-01|  5.0000e-01|  5.0000e-01|   -4.619589|   -4.641806|   -5.379200|   -5.253218|   -4.875057|   -7.610367|    2.360797|
|         339|  9.9379e+00|  5.4540e-09|  7.7122e-01|  5.0000e-01|  5.0000e-01|  5.0000e-01|   -4.620565|   -4.642732|   -5.379710|   -5.254036|   -4.875871|   -7.610292|    2.360957|
|         340|  9.9376e+00|  5.4537e-09|  7.7122e-01|  5.0000e-01|  5.0000e-01|  5.0000e-01|   -4.621545|   -4.643664|   -5.380220|   -5.254857|   -4.876690|   -7.610218|    2.361118|
|         341|  9.9363e+00|  5.4535e-09|  7.7122e-01|  5.0000e-01|  5.0000e-01|  5.0000e-01|   -4.622529|   -4.644599|   -5.380730|   -5.255681|   -4.877512|   -7.610146|    2.361278|
|         342|  9.9346e+00|  5.4532e-09|  7.7122e-01|  5.0000e-01|  5.0000e-01|  5.0000e-01|   -4.623516|   -4.645539|   -5.381240|   -5.256508|   -4.878339|   -7.610076|    2.361439|
|         343|  9.9334e+00|  5.4529e-09|  7.7122e-01|  5.0000e-01|  5.0000e-01|  5.0000e-01|   -4.624507|   -4.646484|   -5.381751|   -5.257339|   -4.879171|   -7.610007|    2.361599|
|         344|  9.9316e+00|  5.4526e-09|  7.7122e-01|  5.0000e-01|  5.0000e-01|  5.0000e-01|   -4.625502|   -4.647432|   -5.382261|   -5.258173|   -4.880006|   -7.609939|    2.361759|
|         345|  9.9295e+00|  5.4524e-09|  7.7122e-01|  5.0000e-01|  5.0000e-01|  5.0000e-01|   -4.626501|   -4.648386|   -5.382771|   -5.259011|   -4.880846|   -7.609872|    2.361919|
|         346|  9.9279e+00|  5.4521e-09|  7.7122e-01|  5.0000e-01|  5.0000e-01|  5.0000e-01|   -4.627503|   -4.649344|   -5.383282|   -5.259852|   -4.881690|   -7.609806|    2.362080|
|         347|  9.9267e+00|  5.4518e-09|  7.7122e-01|  5.0000e-01|  5.0000e-01|  5.0000e-01|   -4.628510|   -4.650307|   -5.383794|   -5.260696|   -4.882539|   -7.609742|    2.362240|
|         348|  9.9254e+00|  5.4515e-09|  7.7121e-01|  5.0000e-01|  5.0000e-01|  5.0000e-01|   -4.629522|   -4.651275|   -5.384306|   -5.261545|   -4.883394|   -7.609679|    2.362400|
|         349|  9.9237e+00|  5.4513e-09|  7.7121e-01|  5.0000e-01|  5.0000e-01|  5.0000e-01|   -4.630539|   -4.652249|   -5.384820|   -5.262398|   -4.884253|   -7.609617|    2.362560|
[...]
|        6701|  9.4437e+00|  5.0689e-09|  7.7120e-01|  5.0000e-01|  5.0000e-01|  5.0000e-01|   -4.952216|   -5.015461|   -5.644290|   -5.630704|   -5.232516|   -7.863968|    2.275120|
|        6702|  9.4437e+00|  5.0689e-09|  7.7120e-01|  5.0000e-01|  5.0000e-01|  5.0000e-01|   -4.951387|   -5.014461|   -5.643903|   -5.630402|   -5.231759|   -7.863864|    2.274825|
|        6703|  9.4437e+00|  5.0689e-09|  7.7120e-01|  5.0000e-01|  5.0000e-01|  5.0000e-01|   -4.950561|   -5.013464|   -5.643515|   -5.630097|   -5.231003|   -7.863759|    2.274531|
|        6704|  9.4436e+00|  5.0689e-09|  7.7120e-01|  5.0000e-01|  5.0000e-01|  5.0000e-01|   -4.949738|   -5.012472|   -5.643132|   -5.629790|   -5.230249|   -7.863655|    2.274237|
|        6705|  9.4435e+00|  5.0689e-09|  7.7120e-01|  5.0000e-01|  5.0000e-01|  5.0000e-01|   -4.948919|   -5.011483|   -5.642752|   -5.629481|   -5.229498|   -7.863550|    2.273944|
|        6706|  9.4434e+00|  5.0690e-09|  7.7120e-01|  5.0000e-01|  5.0000e-01|  5.0000e-01|   -4.948102|   -5.010498|   -5.642374|   -5.629171|   -5.228747|   -7.863445|    2.273651|
|        6707|  9.4434e+00|  5.0690e-09|  7.7120e-01|  5.0000e-01|  5.0000e-01|  5.0000e-01|   -4.947287|   -5.009516|   -5.641996|   -5.628858|   -5.227998|   -7.863340|    2.273359|
|        6708|  9.4433e+00|  5.0690e-09|  7.7120e-01|  5.0000e-01|  5.0000e-01|  5.0000e-01|   -4.946475|   -5.008537|   -5.641618|   -5.628543|   -5.227250|   -7.863235|    2.273068|
|        6709|  9.4432e+00|  5.0690e-09|  7.7120e-01|  5.0000e-01|  5.0000e-01|  5.0000e-01|   -4.945667|   -5.007563|   -5.641240|   -5.628225|   -5.226504|   -7.863130|    2.272777|
|        6710|  9.4432e+00|  5.0690e-09|  7.7120e-01|  5.0000e-01|  5.0000e-01|  5.0000e-01|   -4.944861|   -5.006593|   -5.640863|   -5.627907|   -5.225760|   -7.863024|    2.272487|
|        6711|  9.4431e+00|  5.0690e-09|  7.7120e-01|  5.0000e-01|  5.0000e-01|  5.0000e-01|   -4.944058|   -5.005626|   -5.640487|   -5.627587|   -5.225017|   -7.862919|    2.272197|
|        6712|  9.4431e+00|  5.0691e-09|  7.7120e-01|  5.0000e-01|  5.0000e-01|  5.0000e-01|   -4.943259|   -5.004664|   -5.640112|   -5.627265|   -5.224276|   -7.862812|    2.271908|
|        6713|  9.4430e+00|  5.0691e-09|  7.7120e-01|  5.0000e-01|  5.0000e-01|  5.0000e-01|   -4.942462|   -5.003704|   -5.639738|   -5.626941|   -5.223536|   -7.862706|    2.271619|
|        6714|  9.4429e+00|  5.0691e-09|  7.7120e-01|  5.0000e-01|  5.0000e-01|  5.0000e-01|   -4.941667|   -5.002748|   -5.639364|   -5.626614|   -5.222796|   -7.862599|    2.271331|
|        6715|  9.4429e+00|  5.0691e-09|  7.7120e-01|  5.0000e-01|  5.0000e-01|  5.0000e-01|   -4.940874|   -5.001795|   -5.638990|   -5.626285|   -5.222057|   -7.862491|    2.271043|
|        6716|  9.4428e+00|  5.0691e-09|  7.7120e-01|  5.0000e-01|  5.0000e-01|  5.0000e-01|   -4.940084|   -5.000846|   -5.638620|   -5.625955|   -5.221319|   -7.862384|    2.270756|
|        6717|  9.4427e+00|  5.0691e-09|  7.7120e-01|  5.0000e-01|  5.0000e-01|  5.0000e-01|   -4.939297|   -4.999900|   -5.638250|   -5.625623|   -5.220582|   -7.862275|    2.270470|
|        6718|  9.4427e+00|  5.0691e-09|  7.7120e-01|  5.0000e-01|  5.0000e-01|  5.0000e-01|   -4.938513|   -4.998959|   -5.637882|   -5.625292|   -5.219847|   -7.862166|    2.270184|
|        6719|  9.4426e+00|  5.0691e-09|  7.7120e-01|  5.0000e-01|  5.0000e-01|  5.0000e-01|   -4.937732|   -4.998020|   -5.637513|   -5.624960|   -5.219113|   -7.862056|    2.269899|
|        6720|  9.4425e+00|  5.0692e-09|  7.7120e-01|  5.0000e-01|  5.0000e-01|  5.0000e-01|   -4.936952|   -4.997084|   -5.637143|   -5.624627|   -5.218379|   -7.861946|    2.269614|
|        6721|  9.4425e+00|  5.0692e-09|  7.7120e-01|  5.0000e-01|  5.0000e-01|  5.0000e-01|   -4.936174|   -4.996151|   -5.636774|   -5.624295|   -5.217645|   -7.861835|    2.269330|
|        6722|  9.4424e+00|  5.0692e-09|  7.7120e-01|  5.0000e-01|  5.0000e-01|  5.0000e-01|   -4.935400|   -4.995223|   -5.636405|   -5.623963|   -5.216913|   -7.861723|    2.269046|
|        6723|  9.4424e+00|  5.0692e-09|  7.7120e-01|  5.0000e-01|  5.0000e-01|  5.0000e-01|   -4.934629|   -4.994299|   -5.636037|   -5.623632|   -5.216184|   -7.861610|    2.268763|
|        6724|  9.4423e+00|  5.0692e-09|  7.7120e-01|  5.0000e-01|  5.0000e-01|  5.0000e-01|   -4.933861|   -4.993379|   -5.635669|   -5.623301|   -5.215455|   -7.861497|    2.268480|
|        6725|  9.4423e+00|  5.0692e-09|  7.7120e-01|  5.0000e-01|  5.0000e-01|  5.0000e-01|   -4.933097|   -4.992463|   -5.635304|   -5.622969|   -5.214729|   -7.861383|    2.268198|
|        6726|  9.4422e+00|  5.0692e-09|  7.7120e-01|  5.0000e-01|  5.0000e-01|  5.0000e-01|   -4.932337|   -4.991552|   -5.634941|   -5.622637|   -5.214006|   -7.861268|    2.267917|
|        6727|  9.4422e+00|  5.0692e-09|  7.7120e-01|  5.0000e-01|  5.0000e-01|  5.0000e-01|   -4.931581|   -4.990645|   -5.634579|   -5.622305|   -5.213285|   -7.861152|    2.267636|
|        6728|  9.4421e+00|  5.0692e-09|  7.7120e-01|  5.0000e-01|  5.0000e-01|  5.0000e-01|   -4.930828|   -4.989743|   -5.634221|   -5.621973|   -5.212566|   -7.861035|    2.267356|
|        6729|  9.4421e+00|  5.0692e-09|  7.7120e-01|  5.0000e-01|  5.0000e-01|  5.0000e-01|   -4.930074|   -4.988838|   -5.633863|   -5.621642|   -5.211843|   -7.860917|    2.267076|
|        6730|  9.4420e+00|  5.0693e-09|  7.7120e-01|  5.0000e-01|  5.0000e-01|  5.0000e-01|   -4.929324|   -4.987938|   -5.633506|   -5.621313|   -5.211123|   -7.860798|    2.266797|
|        6731|  9.4419e+00|  5.0693e-09|  7.7120e-01|  5.0000e-01|  5.0000e-01|  5.0000e-01|   -4.928577|   -4.987043|   -5.633150|   -5.620983|   -5.210404|   -7.860678|    2.266519|
|        6732|  9.4419e+00|  5.0693e-09|  7.7120e-01|  5.0000e-01|  5.0000e-01|  5.0000e-01|   -4.927836|   -4.986152|   -5.632797|   -5.620656|   -5.209689|   -7.860557|    2.266241|
|        6733|  9.4418e+00|  5.0693e-09|  7.7120e-01|  5.0000e-01|  5.0000e-01|  5.0000e-01|   -4.927098|   -4.985267|   -5.632443|   -5.620328|   -5.208977|   -7.860434|    2.265963|
|        6734|  9.4417e+00|  5.0693e-09|  7.7120e-01|  5.0000e-01|  5.0000e-01|  5.0000e-01|   -4.926364|   -4.984387|   -5.632090|   -5.620002|   -5.208267|   -7.860311|    2.265687|
|        6735|  9.4417e+00|  5.0693e-09|  7.7120e-01|  5.0000e-01|  5.0000e-01|  5.0000e-01|   -4.925634|   -4.983511|   -5.631737|   -5.619675|   -5.207558|   -7.860186|    2.265410|
|        6736|  9.4416e+00|  5.0693e-09|  7.7120e-01|  5.0000e-01|  5.0000e-01|  5.0000e-01|   -4.924908|   -4.982641|   -5.631387|   -5.619351|   -5.206854|   -7.860060|    2.265135|
|        6737|  9.4415e+00|  5.0693e-09|  7.7120e-01|  5.0000e-01|  5.0000e-01|  5.0000e-01|   -4.924188|   -4.981776|   -5.631038|   -5.619028|   -5.206153|   -7.859933|    2.264860|
|        6738|  9.4415e+00|  5.0693e-09|  7.7120e-01|  5.0000e-01|  5.0000e-01|  5.0000e-01|   -4.923472|   -4.980917|   -5.630691|   -5.618706|   -5.205455|   -7.859804|    2.264585|
|        6739|  9.4415e+00|  5.0693e-09|  7.7120e-01|  5.0000e-01|  5.0000e-01|  5.0000e-01|   -4.922760|   -4.980064|   -5.630344|   -5.618385|   -5.204760|   -7.859673|    2.264312|
|        6740|  9.4415e+00|  5.0693e-09|  7.7120e-01|  5.0000e-01|  5.0000e-01|  5.0000e-01|   -4.922055|   -4.979216|   -5.630000|   -5.618066|   -5.204070|   -7.859541|    2.264038|
|        6741|  9.4415e+00|  5.0693e-09|  7.7120e-01|  5.0000e-01|  5.0000e-01|  5.0000e-01|   -4.921354|   -4.978375|   -5.629656|   -5.617750|   -5.203383|   -7.859407|    2.263766|
|        6742|  9.4414e+00|  5.0693e-09|  7.7120e-01|  5.0000e-01|  5.0000e-01|  5.0000e-01|   -4.920659|   -4.977541|   -5.629312|   -5.617434|   -5.202701|   -7.859272|    2.263494|
|        6743|  9.4414e+00|  5.0693e-09|  7.7120e-01|  5.0000e-01|  5.0000e-01|  5.0000e-01|   -4.919969|   -4.976713|   -5.628968|   -5.617121|   -5.202022|   -7.859135|    2.263222|
|        6744|  9.4413e+00|  5.0693e-09|  7.7120e-01|  5.0000e-01|  5.0000e-01|  5.0000e-01|   -4.919286|   -4.975892|   -5.628627|   -5.616809|   -5.201349|   -7.858996|    2.262952|
|        6745|  9.4413e+00|  5.0693e-09|  7.7120e-01|  5.0000e-01|  5.0000e-01|  5.0000e-01|   -4.918609|   -4.975078|   -5.628289|   -5.616500|   -5.200681|   -7.858856|    2.262681|
|        6746|  9.4412e+00|  5.0693e-09|  7.7120e-01|  5.0000e-01|  5.0000e-01|  5.0000e-01|   -4.917939|   -4.974272|   -5.627952|   -5.616193|   -5.200019|   -7.858713|    2.262412|
|        6747|  9.4411e+00|  5.0693e-09|  7.7120e-01|  5.0000e-01|  5.0000e-01|  5.0000e-01|   -4.917274|   -4.973473|   -5.627615|   -5.615888|   -5.199361|   -7.858569|    2.262143|
|        6748|  9.4411e+00|  5.0693e-09|  7.7120e-01|  5.0000e-01|  5.0000e-01|  5.0000e-01|   -4.916616|   -4.972681|   -5.627279|   -5.615585|   -5.198708|   -7.858423|    2.261875|
|        6749|  9.4410e+00|  5.0693e-09|  7.7120e-01|  5.0000e-01|  5.0000e-01|  5.0000e-01|   -4.915963|   -4.971895|   -5.626942|   -5.615283|   -5.198058|   -7.858275|    2.261607|
|        6750|  9.4409e+00|  5.0693e-09|  7.7120e-01|  5.0000e-01|  5.0000e-01|  5.0000e-01|   -4.915315|   -4.971116|   -5.626606|   -5.614983|   -5.197413|   -7.858124|    2.261340|
+-----------------------------------------------------------------------+
|        File Writing Summary       |              Filename             |
+-----------------------------------------------------------------------+
|SU2 binary restart                 |restart_flow.dat                   |
|Paraview                           |flow.vtu                           |
|Paraview surface                   |surface_flow.vtu                   |
+-----------------------------------------------------------------------+
+-------------------------------------------------------------------------------------------------------------------------------------------------------------------------------------+
|  Inner_Iter|   Time(sec)|      Min DT|      Max DT|     Min CFL|     Max CFL|     Avg CFL|    rms[Rho]|   rms[RhoU]|   rms[RhoV]|   rms[RhoW]|   rms[RhoE]|     rms[nu]|          CD|
+-------------------------------------------------------------------------------------------------------------------------------------------------------------------------------------+
|        6751|  9.4445e+00|  5.0693e-09|  7.7120e-01|  5.0000e-01|  5.0000e-01|  5.0000e-01|   -4.914673|   -4.970344|   -5.626269|   -5.614684|   -5.196772|   -7.857972|    2.261074|
|        6752|  9.4445e+00|  5.0693e-09|  7.7120e-01|  5.0000e-01|  5.0000e-01|  5.0000e-01|   -4.914036|   -4.969578|   -5.625936|   -5.614387|   -5.196136|   -7.857817|    2.260808|
|        6753|  9.4445e+00|  5.0693e-09|  7.7120e-01|  5.0000e-01|  5.0000e-01|  5.0000e-01|   -4.913407|   -4.968819|   -5.625605|   -5.614093|   -5.195505|   -7.857661|    2.260543|
|        6754|  9.4444e+00|  5.0693e-09|  7.7120e-01|  5.0000e-01|  5.0000e-01|  5.0000e-01|   -4.912783|   -4.968067|   -5.625276|   -5.613801|   -5.194879|   -7.857502|    2.260278|
|        6755|  9.4443e+00|  5.0693e-09|  7.7120e-01|  5.0000e-01|  5.0000e-01|  5.0000e-01|   -4.912165|   -4.967322|   -5.624950|   -5.613512|   -5.194258|   -7.857341|    2.260014|
|        6756|  9.4443e+00|  5.0693e-09|  7.7120e-01|  5.0000e-01|  5.0000e-01|  5.0000e-01|   -4.911554|   -4.966584|   -5.624627|   -5.613227|   -5.193643|   -7.857178|    2.259751|
|        6757|  9.4441e+00|  5.0693e-09|  7.7120e-01|  5.0000e-01|  5.0000e-01|  5.0000e-01|   -4.910950|   -4.965853|   -5.624305|   -5.612943|   -5.193033|   -7.857012|    2.259489|
|        6758|  9.4441e+00|  5.0693e-09|  7.7120e-01|  5.0000e-01|  5.0000e-01|  5.0000e-01|   -4.910350|   -4.965129|   -5.623983|   -5.612662|   -5.192427|   -7.856844|    2.259227|
|        6759|  9.4440e+00|  5.0692e-09|  7.7120e-01|  5.0000e-01|  5.0000e-01|  5.0000e-01|   -4.909757|   -4.964411|   -5.623661|   -5.612382|   -5.191825|   -7.856673|    2.258966|
|        6760|  9.4439e+00|  5.0692e-09|  7.7120e-01|  5.0000e-01|  5.0000e-01|  5.0000e-01|   -4.909169|   -4.963700|   -5.623341|   -5.612105|   -5.191228|   -7.856500|    2.258705|
|        6761|  9.4438e+00|  5.0692e-09|  7.7120e-01|  5.0000e-01|  5.0000e-01|  5.0000e-01|   -4.908587|   -4.962996|   -5.623022|   -5.611830|   -5.190636|   -7.856324|    2.258445|
|        6762|  9.4437e+00|  5.0692e-09|  7.7120e-01|  5.0000e-01|  5.0000e-01|  5.0000e-01|   -4.908012|   -4.962299|   -5.622705|   -5.611557|   -5.190049|   -7.856146|    2.258186|
|        6763|  9.4436e+00|  5.0692e-09|  7.7120e-01|  5.0000e-01|  5.0000e-01|  5.0000e-01|   -4.907443|   -4.961609|   -5.622390|   -5.611289|   -5.189468|   -7.855965|    2.257928|
|        6764|  9.4436e+00|  5.0692e-09|  7.7120e-01|  5.0000e-01|  5.0000e-01|  5.0000e-01|   -4.906881|   -4.960927|   -5.622077|   -5.611024|   -5.188892|   -7.855782|    2.257670|
|        6765|  9.4435e+00|  5.0692e-09|  7.7120e-01|  5.0000e-01|  5.0000e-01|  5.0000e-01|   -4.906326|   -4.960252|   -5.621765|   -5.610763|   -5.188323|   -7.855595|    2.257413|
|        6766|  9.4434e+00|  5.0692e-09|  7.7120e-01|  5.0000e-01|  5.0000e-01|  5.0000e-01|   -4.905777|   -4.959584|   -5.621455|   -5.610505|   -5.187758|   -7.855405|    2.257156|
|        6767|  9.4433e+00|  5.0692e-09|  7.7120e-01|  5.0000e-01|  5.0000e-01|  5.0000e-01|   -4.905234|   -4.958923|   -5.621148|   -5.610250|   -5.187199|   -7.855213|    2.256900|
|        6768|  9.4433e+00|  5.0691e-09|  7.7120e-01|  5.0000e-01|  5.0000e-01|  5.0000e-01|   -4.904698|   -4.958270|   -5.620842|   -5.609997|   -5.186645|   -7.855017|    2.256645|
|        6769|  9.4432e+00|  5.0691e-09|  7.7120e-01|  5.0000e-01|  5.0000e-01|  5.0000e-01|   -4.904167|   -4.957623|   -5.620538|   -5.609747|   -5.186096|   -7.854819|    2.256391|
|        6770|  9.4431e+00|  5.0691e-09|  7.7120e-01|  5.0000e-01|  5.0000e-01|  5.0000e-01|   -4.903643|   -4.956984|   -5.620236|   -5.609499|   -5.185552|   -7.854618|    2.256137|
|        6771|  9.4430e+00|  5.0691e-09|  7.7120e-01|  5.0000e-01|  5.0000e-01|  5.0000e-01|   -4.903125|   -4.956351|   -5.619935|   -5.609255|   -5.185013|   -7.854413|    2.255884|
|        6772|  9.4429e+00|  5.0691e-09|  7.7120e-01|  5.0000e-01|  5.0000e-01|  5.0000e-01|   -4.902612|   -4.955724|   -5.619637|   -5.609015|   -5.184478|   -7.854206|    2.255632|
|        6773|  9.4428e+00|  5.0691e-09|  7.7120e-01|  5.0000e-01|  5.0000e-01|  5.0000e-01|   -4.902105|   -4.955103|   -5.619340|   -5.608779|   -5.183948|   -7.853996|    2.255381|
|        6774|  9.4428e+00|  5.0691e-09|  7.7120e-01|  5.0000e-01|  5.0000e-01|  5.0000e-01|   -4.901605|   -4.954490|   -5.619044|   -5.608547|   -5.183423|   -7.853783|    2.255130|
|        6775|  9.4427e+00|  5.0690e-09|  7.7120e-01|  5.0000e-01|  5.0000e-01|  5.0000e-01|   -4.901110|   -4.953884|   -5.618750|   -5.608318|   -5.182904|   -7.853567|    2.254880|
|        6776|  9.4426e+00|  5.0690e-09|  7.7120e-01|  5.0000e-01|  5.0000e-01|  5.0000e-01|   -4.900618|   -4.953279|   -5.618457|   -5.608094|   -5.182385|   -7.853347|    2.254630|
|        6777|  9.4425e+00|  5.0690e-09|  7.7120e-01|  5.0000e-01|  5.0000e-01|  5.0000e-01|   -4.900131|   -4.952682|   -5.618167|   -5.607872|   -5.181871|   -7.853124|    2.254382|
|        6778|  9.4424e+00|  5.0690e-09|  7.7120e-01|  5.0000e-01|  5.0000e-01|  5.0000e-01|   -4.899651|   -4.952091|   -5.617877|   -5.607655|   -5.181362|   -7.852898|    2.254134|
|        6779|  9.4423e+00|  5.0690e-09|  7.7120e-01|  5.0000e-01|  5.0000e-01|  5.0000e-01|   -4.899177|   -4.951508|   -5.617588|   -5.607441|   -5.180859|   -7.852668|    2.253886|
|        6780|  9.4423e+00|  5.0689e-09|  7.7120e-01|  5.0000e-01|  5.0000e-01|  5.0000e-01|   -4.898709|   -4.950932|   -5.617300|   -5.607230|   -5.180361|   -7.852436|    2.253640|
|        6781|  9.4422e+00|  5.0689e-09|  7.7120e-01|  5.0000e-01|  5.0000e-01|  5.0000e-01|   -4.898248|   -4.950363|   -5.617015|   -5.607022|   -5.179870|   -7.852199|    2.253394|
|        6782|  9.4421e+00|  5.0689e-09|  7.7120e-01|  5.0000e-01|  5.0000e-01|  5.0000e-01|   -4.897794|   -4.949802|   -5.616732|   -5.606818|   -5.179384|   -7.851963|    2.253149|
|        6783|  9.4420e+00|  5.0689e-09|  7.7120e-01|  5.0000e-01|  5.0000e-01|  5.0000e-01|   -4.897345|   -4.949248|   -5.616448|   -5.606617|   -5.178903|   -7.851725|    2.252905|
|        6784|  9.4420e+00|  5.0689e-09|  7.7120e-01|  5.0000e-01|  5.0000e-01|  5.0000e-01|   -4.896903|   -4.948700|   -5.616163|   -5.606419|   -5.178427|   -7.851483|    2.252662|
|        6785|  9.4419e+00|  5.0688e-09|  7.7120e-01|  5.0000e-01|  5.0000e-01|  5.0000e-01|   -4.896466|   -4.948159|   -5.615878|   -5.606224|   -5.177956|   -7.851237|    2.252419|
|        6786|  9.4418e+00|  5.0688e-09|  7.7120e-01|  5.0000e-01|  5.0000e-01|  5.0000e-01|   -4.896036|   -4.947626|   -5.615594|   -5.606033|   -5.177490|   -7.850987|    2.252177|
|        6787|  9.4417e+00|  5.0688e-09|  7.7120e-01|  5.0000e-01|  5.0000e-01|  5.0000e-01|   -4.895612|   -4.947100|   -5.615311|   -5.605845|   -5.177031|   -7.850734|    2.251936|
|        6788|  9.4416e+00|  5.0688e-09|  7.7120e-01|  5.0000e-01|  5.0000e-01|  5.0000e-01|   -4.895193|   -4.946580|   -5.615030|   -5.605660|   -5.176576|   -7.850477|    2.251696|
|        6789|  9.4416e+00|  5.0687e-09|  7.7120e-01|  5.0000e-01|  5.0000e-01|  5.0000e-01|   -4.894780|   -4.946067|   -5.614750|   -5.605478|   -5.176125|   -7.850215|    2.251456|
|        6790|  9.4415e+00|  5.0687e-09|  7.7120e-01|  5.0000e-01|  5.0000e-01|  5.0000e-01|   -4.894373|   -4.945559|   -5.614472|   -5.605298|   -5.175679|   -7.849950|    2.251217|
|        6791|  9.4414e+00|  5.0687e-09|  7.7120e-01|  5.0000e-01|  5.0000e-01|  5.0000e-01|   -4.893971|   -4.945059|   -5.614196|   -5.605121|   -5.175239|   -7.849681|    2.250979|

scontrol show job 1128941
JobId=1128941 JobName=m6_aoa15
   UserId=anthonyy(3152141) GroupId=anthonyy(3152141) MCS_label=N/A
   Priority=732241 Nice=0 Account=rrg-jphickey QOS=normal
   JobState=TIMEOUT Reason=TimeLimit Dependency=(null)
   Requeue=0 Restarts=0 BatchFlag=1 Reboot=0 ExitCode=0:15
   RunTime=18:00:01 TimeLimit=18:00:00 TimeMin=N/A
   SubmitTime=2026-03-06T01:59:16 EligibleTime=2026-03-06T01:59:16
   AccrueTime=2026-03-06T01:59:16
   StartTime=2026-03-06T02:37:08 EndTime=2026-03-06T20:37:09 Deadline=N/A
   SuspendTime=None SecsPreSuspend=0 LastSchedEval=2026-03-06T02:37:08 Scheduler=Main
   Partition=compute AllocNode:Sid=tri-login05:2615333
   ReqNodeList=(null) ExcNodeList=(null)
   NodeList=tri[0040,0965]
   BatchHost=tri0040
   NumNodes=2 NumCPUs=384 NumTasks=128 CPUs/Task=1 ReqB:S:C:T=0:0:*:*
   ReqTRES=cpu=128,mem=1534000M,node=2,billing=128
   AllocTRES=cpu=384,mem=1534000M,node=2,billing=384
   Socks/Node=* NtasksPerN:B:S:C=64:0:*:* CoreSpec=*
   MinCPUsNode=64 MinMemoryNode=767000M MinTmpDiskNode=0
   Features=(null) DelayBoot=00:00:00
   OverSubscribe=NO Contiguous=0 Licenses=(null) Network=(null)
   Command=/scratch/anthonyy/reentry/orion/cases/m6_aoa15/run.sh
   WorkDir=/scratch/anthonyy/reentry/orion/cases/m6_aoa15
   Comment=/opt/slurm/bin/sbatch --export=NONE --get-user-env=L run.sh 
   StdErr=/scratch/anthonyy/reentry/orion/cases/m6_aoa15/orion_1128941.err
   StdIn=/dev/null
   StdOut=/scratch/anthonyy/reentry/orion/cases/m6_aoa15/orion_1128941.out
   TresPerTask=cpu=1
   

sacct -j 1128941
JobID           JobName    Account    Elapsed  MaxVMSize     MaxRSS  SystemCPU    UserCPU ExitCode 
------------ ---------- ---------- ---------- ---------- ---------- ---------- ---------- -------- 
1128941        m6_aoa15 rrg-jphic+   18:00:01                         15:55:52 94-13:22:+      0:0 
1128941.bat+      batch rrg-jphic+   18:00:02          0      8972K  00:00.105  00:00.609     0:15 
1128941.ext+     extern rrg-jphic+   18:00:07          0          0  00:00.001   00:00:00      0:0 
1128941.0       SU2_CFD rrg-jphic+   18:00:03          0  11209164K   15:55:52 94-13:22:+     0:15 

