Nodes: tri[0428,0436]
Tasks: 128
NPN:   64

-------------------------------------------------------------------------
|    ___ _   _ ___                                                      |
|   / __| | | |_  )   Release 7.5.1 "Blackbird"                         |
|   \__ \ |_| |/ /                                                      |
|   |___/\___//___|   Suite (Computational Fluid Dynamics Code)         |
|                                                                       |
-------------------------------------------------------------------------
| SU2 Project Website: https://su2code.github.io                        |
|                                                                       |
| The SU2 Project is maintained by the SU2 Foundation                   |
| (http://su2foundation.org)                                            |
-------------------------------------------------------------------------
| Copyright 2012-2023, SU2 Contributors                                 |
|                                                                       |
| SU2 is free software; you can redistribute it and/or                  |
| modify it under the terms of the GNU Lesser General Public            |
| License as published by the Free Software Foundation; either          |
| version 2.1 of the License, or (at your option) any later version.    |
|                                                                       |
| SU2 is distributed in the hope that it will be useful,                |
| but WITHOUT ANY WARRANTY; without even the implied warranty of        |
| MERCHANTABILITY or FITNESS FOR A PARTICULAR PURPOSE. See the GNU      |
| Lesser General Public License for more details.                       |
|                                                                       |
| You should have received a copy of the GNU Lesser General Public      |
| License along with SU2. If not, see <http://www.gnu.org/licenses/>.   |
-------------------------------------------------------------------------

Parsing config file for zone 0

----------------- Physical Case Definition ( Zone 0 ) -------------------
Compressible RANS equations.
Turbulence model: Spalart-Allmaras-noft2
Hybrid RANS/LES: No Hybrid RANS/LES
Mach number: 6.
Angle of attack (AoA): 15 deg, and angle of sideslip (AoS): 0 deg.
Reynolds number: 6.86229e+08. Reference length 5.
Reading and writing binary SU2 native restart files.
Read flow solution from: restart_flow.dat.
Non-Dimensional simulation (V=1.0, Rho=1.0, T=1.0 at the farfield).
The reference area will be computed using y(2D) or z(3D) projection.
The semi-span will be computed using the max y(3D) value.
The reference length is 0.64607 m.
Reference origin for moment evaluation is (0.25, 0, 0).
Surface(s) where the force coefficients are evaluated: ORION_SURFACE.

Input mesh file name: fine.su2

--------------- Space Numerical Integration ( Zone 0 ) ------------------
Jameson-Schmidt-Turkel scheme (2nd order in space) for the flow inviscid terms.
JST viscous coefficients (2nd & 4th): 0.5, 0.02.
The method includes a grid stretching correction (p = 0.3).
Scalar upwind solver for the turbulence model.
First order integration in space.
Average of gradients with correction (viscous flow terms).
Average of gradients with correction (viscous turbulence terms).
Gradient for upwind reconstruction: Green-Gauss.
Gradient for viscous and source terms: Green-Gauss.

--------------- Time Numerical Integration  ( Zone 0 ) ------------------
Local time stepping (steady state simulation).
Euler implicit method for the flow equations.
FGMRES is used for solving the linear system.
Using a ILU(0) preconditioning.
Convergence criteria of the linear solver: 1e-06.
Max number of linear iterations: 100.
CFL adaptation. Factor down: 0.5, factor up: 1.1,
                lower limit: 0.05, upper limit: 0.5,
                acceptable linear residual: 0.001.
Courant-Friedrichs-Lewy number:     0.03
Euler implicit time integration for the turbulence model.

------------------ Convergence Criteria  ( Zone 0 ) ---------------------
Maximum number of solver subiterations: 999999.
Begin convergence monitoring at iteration 5.
Residual minimum value: 1e-8.
Cauchy series min. value: 1e-10.
Number of Cauchy elements: 100.
Begin windowed time average at iteration 0.

-------------------- Output Information ( Zone 0 ) ----------------------
File writing frequency: 
+------------------------------------+
|                     File| Frequency|
+------------------------------------+
|                  RESTART|       150|
|                 PARAVIEW|       150|
|         SURFACE_PARAVIEW|       150|
+------------------------------------+
Writing the convergence history file every 1 inner iterations.
Writing the screen convergence history every 1 inner iterations.
The tabular file format is CSV (.csv).
Convergence history file name: history.
Forces breakdown file name: forces_breakdown.dat.
Surface file name: surface_flow.
Volume file name: flow.
Restart file name: restart_flow.

------------- Config File Boundary Information ( Zone 0 ) ---------------
+-----------------------------------------------------------------------+
|                        Marker Type|                        Marker Name|
+-----------------------------------------------------------------------+
|                          Far-field|                           FARFIELD|
+-----------------------------------------------------------------------+
|                     Heat flux wall|                      ORION_SURFACE|
+-----------------------------------------------------------------------+

-------------------- Output Preprocessing ( Zone 0 ) --------------------

WARNING: SURFACE_PRESSURE_DROP can only be computed for at least 2 surfaces (outlet, inlet, ...)

Screen output fields: INNER_ITER, WALL_TIME, MIN_DELTA_TIME, MAX_DELTA_TIME, MIN_CFL, MAX_CFL, AVG_CFL, RMS_DENSITY, RMS_MOMENTUM-X, RMS_MOMENTUM-Y, RMS_MOMENTUM-Z, RMS_ENERGY, RMS_NU_TILDE, DRAG
History output group(s): ITER, RMS_RES
Convergence field(s): RMS_DENSITY
Warning: No (valid) fields chosen for time convergence monitoring. Time convergence monitoring inactive.
Volume output fields: MACH, PRESSURE, TEMPERATURE, DENSITY, HEAT_FLUX, Y_PLUS, COORDINATES, SOLUTION

------------------- Geometry Preprocessing ( Zone 0 ) -------------------
Three dimensional problem.
62211324 grid points before partitioning.
190879888 volume elements before partitioning.
2 surface markers.
4104 boundary elements in index 0 (Marker = FARFIELD).
1824836 boundary elements in index 1 (Marker = ORION_SURFACE).
Executing the partitioning functions.
Building the graph adjacency structure.
Calling ParMETIS... graph partitioning complete (4959327 edge cuts).
Distributing ParMETIS coloring.
Rebalancing vertices.
Rebalancing volume element connectivity.
Rebalancing markers and surface elements.
66952290 vertices including ghost points. 
197997438 interior elements including halo cells. 
103171259 tetrahedra.
94500655 prisms.
325524 pyramids.
Establishing MPI communication patterns.
Setting point connectivity.
Renumbering points (Reverse Cuthill McKee Ordering).
Recomputing point connectivity.
Setting element connectivity.
Checking the numerical grid orientation.
All volume elements are correctly orientend.
All surface elements are correctly orientend.
Identifying edges and vertices.
Setting the control volume structure.
Volume of the computational grid: 535693.
Searching for the closest normal neighbors to the surfaces.
Storing a mapping from global to local point index.
Compute the surface curvature.
Max K: 132.896. Mean K: 3.9104. Standard deviation K: 7.49569.
Checking for periodicity.
Computing mesh quality statistics for the dual control volumes.
+--------------------------------------------------------------+
|           Mesh Quality Metric|        Minimum|        Maximum|
+--------------------------------------------------------------+
|    Orthogonality Angle (deg.)|        53.0661|             90|
|     CV Face Area Aspect Ratio|        1.01143|        75298.5|
|           CV Sub-Volume Ratio|        1.00029|        45.0258|
+--------------------------------------------------------------+
Finding max control volume width.
Communicating number of neighbors.
Reference area = 11.531 m^2.
Semi-span length = 2.49999 m.
Wetted area = 57.9072 m^2.
Area projection in the x-plane = 19.6343 m^2, y-plane = 11.531 m^2, z-plane = 11.531 m^2.
Max. coordinate in the x-direction = 2.575 m, y-direction = 2.49999 m, z-direction = 2.49999 m.
Min. coordinate in the x-direction = -0.71 m, y-direction = -2.49999 m, z-direction = -2.5 m.
Computing wall distances.

-------------------- Solver Preprocessing ( Zone 0 ) --------------------
Viscous flow: Computing pressure using the ideal gas law
based on the free-stream temperature and a density computed
from the Reynolds number.
Force coefficients computed using free-stream values.

-- Models:
+------------------------------------------------------------------------------+
|          Viscosity Model|        Conductivity Model|              Fluid Model|
+------------------------------------------------------------------------------+
|               SUTHERLAND|          CONSTANT_PRANDTL|             STANDARD_AIR|
+------------------------------------------------------------------------------+
-- Fluid properties:
+------------------------------------------------------------------------------+
|                  Name|    Dim. value|    Ref. value|      Unit|Non-dim. value|
+------------------------------------------------------------------------------+
|        Ref. Viscosity|     1.716e-05|       2455.73|   N.s/m^2|   6.98773e-09|
|      Sutherland Temp.|        273.15|        288.15|         K|      0.947944|
|     Sutherland Const.|         110.4|        288.15|         K|      0.383134|
+------------------------------------------------------------------------------+
|        Prandtl (Lam.)|             -|             -|         -|          0.72|
|       Prandtl (Turb.)|             -|             -|         -|           0.9|
+------------------------------------------------------------------------------+
|          Gas Constant|       287.058|       14467.7|  N.m/kg.K|     0.0198413|
|      Spec. Heat Ratio|             -|             -|         -|           1.4|
+------------------------------------------------------------------------------+
-- Initial and free-stream conditions:
+------------------------------------------------------------------------------+
|                  Name|    Dim. value|    Ref. value|      Unit|Non-dim. value|
+------------------------------------------------------------------------------+
|       Static Pressure|       99485.6|   5.01407e+06|        Pa|     0.0198413|
|               Density|       1.20274|       1.20274|    kg/m^3|             1|
|           Temperature|        288.15|        288.15|         K|             1|
|          Total Energy|   2.29123e+06|   4.16887e+06|   m^2/s^2|      0.549603|
|            Velocity-X|       1972.21|       2041.78|       m/s|      0.965926|
|            Velocity-Y|             0|       2041.78|       m/s|             0|
|            Velocity-Z|       528.452|       2041.78|       m/s|      0.258819|
|    Velocity Magnitude|       2041.78|       2041.78|       m/s|             1|
+------------------------------------------------------------------------------+
|             Viscosity|    1.7893e-05|       2455.73|   N.s/m^2|    7.2862e-09|
|          Conductivity|             -|   3.55289e+07|   W/m^2.K|             -|
|     Turb. Kin. Energy|       15633.3|   4.16887e+06|   m^2/s^2|       0.00375|
|     Spec. Dissipation|   1.05085e+08|       2041.78|       1/s|       51467.1|
+------------------------------------------------------------------------------+
|           Mach Number|             -|             -|         -|             6|
|       Reynolds Number|             -|             -|         -|   6.86229e+08|
+------------------------------------------------------------------------------+
Initialize Jacobian structure (Navier-Stokes). MG level: 0.
Initialize Jacobian structure (SA model).

------------------- Numerics Preprocessing ( Zone 0 ) -------------------

----------------- Integration Preprocessing ( Zone 0 ) ------------------

------------------- Iteration Preprocessing ( Zone 0 ) ------------------
Euler/Navier-Stokes/RANS fluid iteration.

------------------------------ Begin Solver -----------------------------

Simulation Run using the Single-zone Driver
WARNING: SU2 was not compiled for an AVX-capable architecture. Performance could be better,
         see https://su2code.github.io/docs_v7/Build-SU2-Linux-MacOS/#compiler-optimizations
+-------------------------------------------------------------------------------------------------------------------------------------------------------------------------------------+
|  Inner_Iter|   Time(sec)|      Min DT|      Max DT|     Min CFL|     Max CFL|     Avg CFL|    rms[Rho]|   rms[RhoU]|   rms[RhoV]|   rms[RhoW]|   rms[RhoE]|     rms[nu]|          CD|
+-------------------------------------------------------------------------------------------------------------------------------------------------------------------------------------+
|           0|  1.1190e+01|  4.1349e-10|  4.6272e-02|  5.0000e-02|  5.0000e-02|  5.0000e-02|   -4.862849|   -4.933625|   -5.528725|   -5.546310|   -5.146352|   -8.042380|    2.314534|
|           1|  8.1344e+00|  6.8914e-10|  7.7120e-02|  5.5000e-02|  5.5000e-02|  5.5000e-02|   -4.862825|   -4.933581|   -5.528762|   -5.546334|   -5.146355|   -8.042277|    2.314502|
|           2|  7.2052e+00|  7.5805e-10|  8.4831e-02|  6.0500e-02|  6.0500e-02|  6.0500e-02|   -4.862782|   -4.933508|   -5.528818|   -5.546367|   -5.146355|   -8.042221|    2.314467|
|           3|  6.7300e+00|  8.3385e-10|  9.3315e-02|  6.6550e-02|  6.6550e-02|  6.6550e-02|   -4.862734|   -4.933426|   -5.528876|   -5.546403|   -5.146354|   -8.042161|    2.314428|
|           4|  6.4027e+00|  9.1723e-10|  1.0265e-01|  7.3205e-02|  7.3205e-02|  7.3205e-02|   -4.862681|   -4.933336|   -5.528937|   -5.546439|   -5.146351|   -8.042094|    2.314385|
|           5|  6.1814e+00|  1.0089e-09|  1.1291e-01|  8.0526e-02|  8.0526e-02|  8.0526e-02|   -4.862621|   -4.933237|   -5.529000|   -5.546477|   -5.146345|   -8.042021|    2.314339|
|           6|  6.0360e+00|  1.1098e-09|  1.2420e-01|  8.8578e-02|  8.8578e-02|  8.8578e-02|   -4.862554|   -4.933127|   -5.529066|   -5.546516|   -5.146336|   -8.041940|    2.314287|
|           7|  5.9059e+00|  1.2208e-09|  1.3662e-01|  9.7436e-02|  9.7436e-02|  9.7436e-02|   -4.862479|   -4.933006|   -5.529132|   -5.546555|   -5.146324|   -8.041852|    2.314230|
|           8|  5.8065e+00|  1.3429e-09|  1.5028e-01|  1.0718e-01|  1.0718e-01|  1.0718e-01|   -4.862395|   -4.932873|   -5.529199|   -5.546593|   -5.146306|   -8.041755|    2.314168|
|           9|  5.7357e+00|  1.4771e-09|  1.6531e-01|  1.1790e-01|  1.1790e-01|  1.1790e-01|   -4.862301|   -4.932725|   -5.529266|   -5.546630|   -5.146283|   -8.041648|    2.314100|
|          10|  5.6769e+00|  1.6248e-09|  1.8184e-01|  1.2969e-01|  1.2969e-01|  1.2969e-01|   -4.862195|   -4.932561|   -5.529330|   -5.546665|   -5.146253|   -8.041530|    2.314024|
|          11|  5.6202e+00|  1.7873e-09|  2.0003e-01|  1.4266e-01|  1.4266e-01|  1.4266e-01|   -4.862076|   -4.932380|   -5.529392|   -5.546697|   -5.146214|   -8.041401|    2.313941|
|          12|  5.5659e+00|  1.9660e-09|  2.2003e-01|  1.5692e-01|  1.5692e-01|  1.5692e-01|   -4.861942|   -4.932179|   -5.529449|   -5.546724|   -5.146164|   -8.041260|    2.313850|
|          13|  5.5535e+00|  2.1626e-09|  2.4203e-01|  1.7261e-01|  1.7261e-01|  1.7261e-01|   -4.861790|   -4.931957|   -5.529497|   -5.546745|   -5.146102|   -8.041104|    2.313749|
|          14|  5.5528e+00|  2.3788e-09|  2.6624e-01|  1.8987e-01|  1.8987e-01|  1.8987e-01|   -4.861619|   -4.931710|   -5.529536|   -5.546756|   -5.146024|   -8.040933|    2.313639|
|          15|  5.5494e+00|  2.6166e-09|  2.9286e-01|  2.0886e-01|  2.0886e-01|  2.0886e-01|   -4.861426|   -4.931435|   -5.529561|   -5.546755|   -5.145927|   -8.040746|    2.313518|
|          16|  5.5484e+00|  2.8782e-09|  3.2215e-01|  2.2975e-01|  2.2975e-01|  2.2975e-01|   -4.861207|   -4.931130|   -5.529569|   -5.546740|   -5.145808|   -8.040540|    2.313384|
|          17|  5.5508e+00|  3.1660e-09|  3.5436e-01|  2.5272e-01|  2.5272e-01|  2.5272e-01|   -4.860959|   -4.930790|   -5.529553|   -5.546705|   -5.145662|   -8.040315|    2.313237|
|          18|  5.5470e+00|  3.4825e-09|  3.8980e-01|  2.7800e-01|  2.7800e-01|  2.7800e-01|   -4.860677|   -4.930410|   -5.529509|   -5.546647|   -5.145482|   -8.040068|    2.313075|
|          19|  5.5428e+00|  3.8306e-09|  4.2878e-01|  3.0580e-01|  3.0580e-01|  3.0580e-01|   -4.860356|   -4.929985|   -5.529430|   -5.546559|   -5.145263|   -8.039797|    2.312897|
|          20|  5.5381e+00|  4.2136e-09|  4.7166e-01|  3.3637e-01|  3.3637e-01|  3.3637e-01|   -4.859990|   -4.929508|   -5.529309|   -5.546436|   -5.144996|   -8.039501|    2.312701|
|          21|  5.5362e+00|  4.6348e-09|  5.1882e-01|  3.7001e-01|  3.7001e-01|  3.7001e-01|   -4.859572|   -4.928973|   -5.529136|   -5.546269|   -5.144673|   -8.039176|    2.312486|
|          22|  5.5383e+00|  5.0981e-09|  5.7070e-01|  4.0701e-01|  4.0701e-01|  4.0701e-01|   -4.859095|   -4.928370|   -5.528904|   -5.546051|   -5.144282|   -8.038822|    2.312249|
|          23|  5.5608e+00|  5.6077e-09|  6.2777e-01|  4.4772e-01|  4.4772e-01|  4.4772e-01|   -4.858547|   -4.927689|   -5.528599|   -5.545769|   -5.143809|   -8.038434|    2.311989|
|          24|  5.5795e+00|  6.1682e-09|  6.9055e-01|  4.9249e-01|  4.9249e-01|  4.9249e-01|   -4.857917|   -4.926918|   -5.528209|   -5.545413|   -5.143237|   -8.038012|    2.311702|
|          25|  5.6004e+00|  6.7847e-09|  7.5961e-01|  5.0000e-01|  5.0000e-01|  5.0000e-01|   -4.857190|   -4.926041|   -5.527716|   -5.544967|   -5.142548|   -8.037552|    2.311387|
|          26|  5.6249e+00|  6.8878e-09|  7.7120e-01|  5.0000e-01|  5.0000e-01|  5.0000e-01|   -4.856350|   -4.925041|   -5.527106|   -5.544417|   -5.141717|   -8.037223|    2.311067|
|          27|  5.6488e+00|  6.8874e-09|  7.7120e-01|  5.0000e-01|  5.0000e-01|  5.0000e-01|   -4.855488|   -4.924014|   -5.526488|   -5.543853|   -5.140856|   -8.036924|    2.310747|
|          28|  5.6637e+00|  6.8871e-09|  7.7120e-01|  5.0000e-01|  5.0000e-01|  5.0000e-01|   -4.854621|   -4.922981|   -5.525883|   -5.543292|   -5.139986|   -8.036629|    2.310428|
|          29|  5.6725e+00|  6.8867e-09|  7.7120e-01|  5.0000e-01|  5.0000e-01|  5.0000e-01|   -4.853749|   -4.921942|   -5.525290|   -5.542734|   -5.139108|   -8.036339|    2.310109|
|          30|  5.6800e+00|  6.8864e-09|  7.7120e-01|  5.0000e-01|  5.0000e-01|  5.0000e-01|   -4.852874|   -4.920897|   -5.524711|   -5.542180|   -5.138224|   -8.036054|    2.309790|
|          31|  5.6876e+00|  6.8860e-09|  7.7120e-01|  5.0000e-01|  5.0000e-01|  5.0000e-01|   -4.851996|   -4.919848|   -5.524143|   -5.541630|   -5.137332|   -8.035772|    2.309471|
|          32|  5.6932e+00|  6.8856e-09|  7.7120e-01|  5.0000e-01|  5.0000e-01|  5.0000e-01|   -4.851114|   -4.918794|   -5.523587|   -5.541085|   -5.136435|   -8.035495|    2.309153|
|          33|  5.6994e+00|  6.8853e-09|  7.7120e-01|  5.0000e-01|  5.0000e-01|  5.0000e-01|   -4.850230|   -4.917737|   -5.523041|   -5.540543|   -5.135534|   -8.035221|    2.308835|
|          34|  5.7060e+00|  6.8849e-09|  7.7120e-01|  5.0000e-01|  5.0000e-01|  5.0000e-01|   -4.849344|   -4.916677|   -5.522503|   -5.540005|   -5.134627|   -8.034952|    2.308517|
|          35|  5.7154e+00|  6.8846e-09|  7.7120e-01|  5.0000e-01|  5.0000e-01|  5.0000e-01|   -4.848457|   -4.915616|   -5.521976|   -5.539472|   -5.133718|   -8.034687|    2.308199|
|          36|  5.7210e+00|  6.8842e-09|  7.7120e-01|  5.0000e-01|  5.0000e-01|  5.0000e-01|   -4.847568|   -4.914552|   -5.521455|   -5.538940|   -5.132805|   -8.034426|    2.307882|
|          37|  5.7244e+00|  6.8839e-09|  7.7120e-01|  5.0000e-01|  5.0000e-01|  5.0000e-01|   -4.846677|   -4.913488|   -5.520941|   -5.538413|   -5.131888|   -8.034170|    2.307565|
|          38|  5.7292e+00|  6.8835e-09|  7.7120e-01|  5.0000e-01|  5.0000e-01|  5.0000e-01|   -4.845788|   -4.912425|   -5.520438|   -5.537888|   -5.130972|   -8.033917|    2.307248|
|          39|  5.7352e+00|  6.8832e-09|  7.7120e-01|  5.0000e-01|  5.0000e-01|  5.0000e-01|   -4.844898|   -4.911362|   -5.519940|   -5.537367|   -5.130053|   -8.033668|    2.306932|
|          40|  5.7411e+00|  6.8828e-09|  7.7120e-01|  5.0000e-01|  5.0000e-01|  5.0000e-01|   -4.844010|   -4.910301|   -5.519446|   -5.536849|   -5.129135|   -8.033423|    2.306616|
|          41|  5.7477e+00|  6.8825e-09|  7.7120e-01|  5.0000e-01|  5.0000e-01|  5.0000e-01|   -4.843123|   -4.909242|   -5.518960|   -5.536334|   -5.128218|   -8.033181|    2.306300|
|          42|  5.7510e+00|  6.8821e-09|  7.7120e-01|  5.0000e-01|  5.0000e-01|  5.0000e-01|   -4.842235|   -4.908182|   -5.518478|   -5.535822|   -5.127297|   -8.032944|    2.305984|
|          43|  5.7545e+00|  6.8818e-09|  7.7120e-01|  5.0000e-01|  5.0000e-01|  5.0000e-01|   -4.841350|   -4.907125|   -5.518001|   -5.535316|   -5.126379|   -8.032710|    2.305668|
|          44|  5.7582e+00|  6.8814e-09|  7.7120e-01|  5.0000e-01|  5.0000e-01|  5.0000e-01|   -4.840467|   -4.906071|   -5.517528|   -5.534813|   -5.125462|   -8.032479|    2.305353|
|          45|  5.7685e+00|  6.8811e-09|  7.7120e-01|  5.0000e-01|  5.0000e-01|  5.0000e-01|   -4.839588|   -4.905023|   -5.517058|   -5.534315|   -5.124549|   -8.032252|    2.305038|
|          46|  5.7787e+00|  6.8807e-09|  7.7120e-01|  5.0000e-01|  5.0000e-01|  5.0000e-01|   -4.838714|   -4.903980|   -5.516590|   -5.533819|   -5.123639|   -8.032029|    2.304723|
|          47|  5.7843e+00|  6.8804e-09|  7.7120e-01|  5.0000e-01|  5.0000e-01|  5.0000e-01|   -4.837844|   -4.902943|   -5.516126|   -5.533327|   -5.122735|   -8.031810|    2.304408|
|          48|  5.7898e+00|  6.8800e-09|  7.7120e-01|  5.0000e-01|  5.0000e-01|  5.0000e-01|   -4.836981|   -4.901914|   -5.515666|   -5.532840|   -5.121837|   -8.031593|    2.304094|
|          49|  5.7940e+00|  6.8797e-09|  7.7120e-01|  5.0000e-01|  5.0000e-01|  5.0000e-01|   -4.836126|   -4.900893|   -5.515212|   -5.532357|   -5.120946|   -8.031380|    2.303779|
|          50|  5.7956e+00|  6.8793e-09|  7.7120e-01|  5.0000e-01|  5.0000e-01|  5.0000e-01|   -4.835279|   -4.899882|   -5.514763|   -5.531879|   -5.120064|   -8.031171|    2.303465|
|          51|  5.7989e+00|  6.8790e-09|  7.7120e-01|  5.0000e-01|  5.0000e-01|  5.0000e-01|   -4.834439|   -4.898879|   -5.514316|   -5.531406|   -5.119190|   -8.030965|    2.303151|
|          52|  5.8025e+00|  6.8787e-09|  7.7120e-01|  5.0000e-01|  5.0000e-01|  5.0000e-01|   -4.833608|   -4.897886|   -5.513872|   -5.530937|   -5.118324|   -8.030762|    2.302837|
|          53|  5.8067e+00|  6.8783e-09|  7.7120e-01|  5.0000e-01|  5.0000e-01|  5.0000e-01|   -4.832784|   -4.896903|   -5.513428|   -5.530473|   -5.117466|   -8.030562|    2.302524|
|          54|  5.8076e+00|  6.8780e-09|  7.7120e-01|  5.0000e-01|  5.0000e-01|  5.0000e-01|   -4.831969|   -4.895928|   -5.512985|   -5.530016|   -5.116616|   -8.030365|    2.302210|
|          55|  5.8097e+00|  6.8777e-09|  7.7120e-01|  5.0000e-01|  5.0000e-01|  5.0000e-01|   -4.831161|   -4.894963|   -5.512544|   -5.529563|   -5.115773|   -8.030171|    2.301897|
|          56|  5.8130e+00|  6.8773e-09|  7.7120e-01|  5.0000e-01|  5.0000e-01|  5.0000e-01|   -4.830363|   -4.894008|   -5.512108|   -5.529115|   -5.114940|   -8.029980|    2.301584|
|          57|  5.8151e+00|  6.8770e-09|  7.7120e-01|  5.0000e-01|  5.0000e-01|  5.0000e-01|   -4.829574|   -4.893063|   -5.511678|   -5.528672|   -5.114117|   -8.029793|    2.301271|
|          58|  5.8161e+00|  6.8767e-09|  7.7120e-01|  5.0000e-01|  5.0000e-01|  5.0000e-01|   -4.828794|   -4.892128|   -5.511252|   -5.528232|   -5.113303|   -8.029608|    2.300958|
|          59|  5.8177e+00|  6.8763e-09|  7.7120e-01|  5.0000e-01|  5.0000e-01|  5.0000e-01|   -4.828023|   -4.891203|   -5.510827|   -5.527797|   -5.112498|   -8.029425|    2.300645|
|          60|  5.8200e+00|  6.8760e-09|  7.7120e-01|  5.0000e-01|  5.0000e-01|  5.0000e-01|   -4.827261|   -4.890289|   -5.510404|   -5.527369|   -5.111703|   -8.029246|    2.300333|
|          61|  5.8200e+00|  6.8757e-09|  7.7120e-01|  5.0000e-01|  5.0000e-01|  5.0000e-01|   -4.826509|   -4.889384|   -5.509986|   -5.526946|   -5.110917|   -8.029069|    2.300021|
|          62|  5.8212e+00|  6.8753e-09|  7.7120e-01|  5.0000e-01|  5.0000e-01|  5.0000e-01|   -4.825767|   -4.888491|   -5.509572|   -5.526530|   -5.110141|   -8.028894|    2.299709|
|          63|  5.8230e+00|  6.8750e-09|  7.7120e-01|  5.0000e-01|  5.0000e-01|  5.0000e-01|   -4.825036|   -4.887609|   -5.509161|   -5.526120|   -5.109377|   -8.028722|    2.299397|
|          64|  5.8247e+00|  6.8747e-09|  7.7120e-01|  5.0000e-01|  5.0000e-01|  5.0000e-01|   -4.824314|   -4.886738|   -5.508753|   -5.525716|   -5.108622|   -8.028553|    2.299085|
|          65|  5.8273e+00|  6.8744e-09|  7.7120e-01|  5.0000e-01|  5.0000e-01|  5.0000e-01|   -4.823603|   -4.885877|   -5.508347|   -5.525317|   -5.107878|   -8.028385|    2.298773|
|          66|  5.8277e+00|  6.8740e-09|  7.7120e-01|  5.0000e-01|  5.0000e-01|  5.0000e-01|   -4.822901|   -4.885027|   -5.507943|   -5.524925|   -5.107142|   -8.028220|    2.298462|
|          67|  5.8294e+00|  6.8737e-09|  7.7120e-01|  5.0000e-01|  5.0000e-01|  5.0000e-01|   -4.822208|   -4.884187|   -5.507542|   -5.524538|   -5.106416|   -8.028058|    2.298151|
|          68|  5.8308e+00|  6.8734e-09|  7.7120e-01|  5.0000e-01|  5.0000e-01|  5.0000e-01|   -4.821524|   -4.883357|   -5.507141|   -5.524157|   -5.105698|   -8.027897|    2.297840|
|          69|  5.8314e+00|  6.8731e-09|  7.7120e-01|  5.0000e-01|  5.0000e-01|  5.0000e-01|   -4.820849|   -4.882537|   -5.506744|   -5.523782|   -5.104989|   -8.027738|    2.297529|
|          70|  5.8336e+00|  6.8727e-09|  7.7120e-01|  5.0000e-01|  5.0000e-01|  5.0000e-01|   -4.820184|   -4.881728|   -5.506350|   -5.523415|   -5.104290|   -8.027581|    2.297218|
|          71|  5.8342e+00|  6.8724e-09|  7.7120e-01|  5.0000e-01|  5.0000e-01|  5.0000e-01|   -4.819529|   -4.880929|   -5.505958|   -5.523053|   -5.103601|   -8.027426|    2.296908|
|          72|  5.8373e+00|  6.8721e-09|  7.7120e-01|  5.0000e-01|  5.0000e-01|  5.0000e-01|   -4.818885|   -4.880141|   -5.505570|   -5.522699|   -5.102922|   -8.027273|    2.296597|
|          73|  5.8396e+00|  6.8718e-09|  7.7120e-01|  5.0000e-01|  5.0000e-01|  5.0000e-01|   -4.818251|   -4.879364|   -5.505188|   -5.522351|   -5.102255|   -8.027122|    2.296287|
|          74|  5.8418e+00|  6.8715e-09|  7.7120e-01|  5.0000e-01|  5.0000e-01|  5.0000e-01|   -4.817628|   -4.878598|   -5.504810|   -5.522011|   -5.101597|   -8.026972|    2.295977|
|          75|  5.8423e+00|  6.8712e-09|  7.7120e-01|  5.0000e-01|  5.0000e-01|  5.0000e-01|   -4.817013|   -4.877839|   -5.504434|   -5.521676|   -5.100946|   -8.026823|    2.295667|
|          76|  5.8441e+00|  6.8709e-09|  7.7120e-01|  5.0000e-01|  5.0000e-01|  5.0000e-01|   -4.816407|   -4.877092|   -5.504061|   -5.521347|   -5.100305|   -8.026676|    2.295358|
|          77|  5.8455e+00|  6.8706e-09|  7.7120e-01|  5.0000e-01|  5.0000e-01|  5.0000e-01|   -4.815811|   -4.876353|   -5.503691|   -5.521024|   -5.099673|   -8.026531|    2.295048|
|          78|  5.8463e+00|  6.8702e-09|  7.7120e-01|  5.0000e-01|  5.0000e-01|  5.0000e-01|   -4.815220|   -4.875621|   -5.503320|   -5.520708|   -5.099044|   -8.026387|    2.294739|
|          79|  5.8470e+00|  6.8699e-09|  7.7120e-01|  5.0000e-01|  5.0000e-01|  5.0000e-01|   -4.814636|   -4.874896|   -5.502950|   -5.520397|   -5.098422|   -8.026244|    2.294430|
|          80|  5.8479e+00|  6.8696e-09|  7.7120e-01|  5.0000e-01|  5.0000e-01|  5.0000e-01|   -4.814060|   -4.874180|   -5.502579|   -5.520092|   -5.097806|   -8.026102|    2.294121|
|          81|  5.8479e+00|  6.8693e-09|  7.7120e-01|  5.0000e-01|  5.0000e-01|  5.0000e-01|   -4.813492|   -4.873473|   -5.502210|   -5.519791|   -5.097199|   -8.025961|    2.293813|
|          82|  5.8490e+00|  6.8690e-09|  7.7120e-01|  5.0000e-01|  5.0000e-01|  5.0000e-01|   -4.812933|   -4.872776|   -5.501843|   -5.519495|   -5.096599|   -8.025821|    2.293504|
|          83|  5.8500e+00|  6.8687e-09|  7.7120e-01|  5.0000e-01|  5.0000e-01|  5.0000e-01|   -4.812381|   -4.872088|   -5.501476|   -5.519203|   -5.096006|   -8.025682|    2.293196|
|          84|  5.8508e+00|  6.8684e-09|  7.7120e-01|  5.0000e-01|  5.0000e-01|  5.0000e-01|   -4.811838|   -4.871410|   -5.501110|   -5.518916|   -5.095421|   -8.025544|    2.292888|
|          85|  5.8549e+00|  6.8681e-09|  7.7120e-01|  5.0000e-01|  5.0000e-01|  5.0000e-01|   -4.811303|   -4.870741|   -5.500746|   -5.518633|   -5.094842|   -8.025406|    2.292580|
|          86|  5.8571e+00|  6.8678e-09|  7.7120e-01|  5.0000e-01|  5.0000e-01|  5.0000e-01|   -4.810774|   -4.870080|   -5.500381|   -5.518354|   -5.094270|   -8.025269|    2.292272|
|          87|  5.8577e+00|  6.8675e-09|  7.7120e-01|  5.0000e-01|  5.0000e-01|  5.0000e-01|   -4.810252|   -4.869427|   -5.500016|   -5.518079|   -5.093704|   -8.025132|    2.291964|
|          88|  5.8588e+00|  6.8672e-09|  7.7120e-01|  5.0000e-01|  5.0000e-01|  5.0000e-01|   -4.809738|   -4.868782|   -5.499652|   -5.517807|   -5.093144|   -8.024996|    2.291657|
|          89|  5.8589e+00|  6.8670e-09|  7.7120e-01|  5.0000e-01|  5.0000e-01|  5.0000e-01|   -4.809231|   -4.868146|   -5.499289|   -5.517540|   -5.092591|   -8.024860|    2.291350|
|          90|  5.8602e+00|  6.8667e-09|  7.7120e-01|  5.0000e-01|  5.0000e-01|  5.0000e-01|   -4.808731|   -4.867519|   -5.498926|   -5.517279|   -5.092045|   -8.024724|    2.291043|
|          91|  5.8614e+00|  6.8664e-09|  7.7120e-01|  5.0000e-01|  5.0000e-01|  5.0000e-01|   -4.808238|   -4.866900|   -5.498563|   -5.517022|   -5.091505|   -8.024588|    2.290736|
|          92|  5.8612e+00|  6.8661e-09|  7.7120e-01|  5.0000e-01|  5.0000e-01|  5.0000e-01|   -4.807753|   -4.866290|   -5.498204|   -5.516771|   -5.090971|   -8.024453|    2.290430|
|          93|  5.8614e+00|  6.8658e-09|  7.7120e-01|  5.0000e-01|  5.0000e-01|  5.0000e-01|   -4.807275|   -4.865688|   -5.497847|   -5.516525|   -5.090445|   -8.024317|    2.290123|
|          94|  5.8617e+00|  6.8655e-09|  7.7120e-01|  5.0000e-01|  5.0000e-01|  5.0000e-01|   -4.806803|   -4.865093|   -5.497490|   -5.516285|   -5.089924|   -8.024181|    2.289817|
|          95|  5.8615e+00|  6.8652e-09|  7.7120e-01|  5.0000e-01|  5.0000e-01|  5.0000e-01|   -4.806338|   -4.864506|   -5.497137|   -5.516052|   -5.089409|   -8.024045|    2.289511|
|          96|  5.8614e+00|  6.8650e-09|  7.7120e-01|  5.0000e-01|  5.0000e-01|  5.0000e-01|   -4.805881|   -4.863926|   -5.496786|   -5.515825|   -5.088901|   -8.023908|    2.289205|
|          97|  5.8620e+00|  6.8647e-09|  7.7120e-01|  5.0000e-01|  5.0000e-01|  5.0000e-01|   -4.805429|   -4.863354|   -5.496437|   -5.515603|   -5.088398|   -8.023771|    2.288900|
|          98|  5.8617e+00|  6.8644e-09|  7.7120e-01|  5.0000e-01|  5.0000e-01|  5.0000e-01|   -4.804984|   -4.862790|   -5.496088|   -5.515384|   -5.087900|   -8.023633|    2.288595|
|          99|  5.8613e+00|  6.8641e-09|  7.7120e-01|  5.0000e-01|  5.0000e-01|  5.0000e-01|   -4.804544|   -4.862233|   -5.495738|   -5.515170|   -5.087407|   -8.023495|    2.288290|
|         100|  5.8611e+00|  6.8638e-09|  7.7120e-01|  5.0000e-01|  5.0000e-01|  5.0000e-01|   -4.804111|   -4.861684|   -5.495387|   -5.514959|   -5.086920|   -8.023356|    2.287985|
|         101|  5.8617e+00|  6.8636e-09|  7.7120e-01|  5.0000e-01|  5.0000e-01|  5.0000e-01|   -4.803685|   -4.861142|   -5.495039|   -5.514753|   -5.086439|   -8.023216|    2.287680|
|         102|  5.8612e+00|  6.8633e-09|  7.7120e-01|  5.0000e-01|  5.0000e-01|  5.0000e-01|   -4.803264|   -4.860608|   -5.494692|   -5.514551|   -5.085963|   -8.023075|    2.287376|
|         103|  5.8619e+00|  6.8630e-09|  7.7120e-01|  5.0000e-01|  5.0000e-01|  5.0000e-01|   -4.802850|   -4.860082|   -5.494345|   -5.514354|   -5.085494|   -8.022934|    2.287071|
|         104|  5.8620e+00|  6.8628e-09|  7.7120e-01|  5.0000e-01|  5.0000e-01|  5.0000e-01|   -4.802443|   -4.859563|   -5.493997|   -5.514161|   -5.085029|   -8.022791|    2.286767|
|         105|  5.8629e+00|  6.8625e-09|  7.7120e-01|  5.0000e-01|  5.0000e-01|  5.0000e-01|   -4.802040|   -4.859050|   -5.493649|   -5.513972|   -5.084569|   -8.022647|    2.286464|
|         106|  5.8651e+00|  6.8622e-09|  7.7120e-01|  5.0000e-01|  5.0000e-01|  5.0000e-01|   -4.801639|   -4.858540|   -5.493299|   -5.513785|   -5.084110|   -8.022501|    2.286160|
|         107|  5.8665e+00|  6.8620e-09|  7.7120e-01|  5.0000e-01|  5.0000e-01|  5.0000e-01|   -4.801246|   -4.858038|   -5.492950|   -5.513604|   -5.083657|   -8.022354|    2.285857|
|         108|  5.8672e+00|  6.8617e-09|  7.7120e-01|  5.0000e-01|  5.0000e-01|  5.0000e-01|   -4.800857|   -4.857541|   -5.492601|   -5.513426|   -5.083208|   -8.022206|    2.285554|
|         109|  5.8677e+00|  6.8615e-09|  7.7120e-01|  5.0000e-01|  5.0000e-01|  5.0000e-01|   -4.800473|   -4.857052|   -5.492253|   -5.513254|   -5.082764|   -8.022057|    2.285251|
|         110|  5.8680e+00|  6.8612e-09|  7.7120e-01|  5.0000e-01|  5.0000e-01|  5.0000e-01|   -4.800097|   -4.856570|   -5.491908|   -5.513086|   -5.082327|   -8.021905|    2.284948|
|         111|  5.8675e+00|  6.8609e-09|  7.7120e-01|  5.0000e-01|  5.0000e-01|  5.0000e-01|   -4.799726|   -4.856095|   -5.491563|   -5.512922|   -5.081894|   -8.021752|    2.284646|
|         112|  5.8680e+00|  6.8607e-09|  7.7120e-01|  5.0000e-01|  5.0000e-01|  5.0000e-01|   -4.799361|   -4.855627|   -5.491217|   -5.512762|   -5.081467|   -8.021597|    2.284344|
|         113|  5.8687e+00|  6.8604e-09|  7.7120e-01|  5.0000e-01|  5.0000e-01|  5.0000e-01|   -4.799000|   -4.855165|   -5.490872|   -5.512604|   -5.081044|   -8.021441|    2.284042|
|         114|  5.8694e+00|  6.8602e-09|  7.7120e-01|  5.0000e-01|  5.0000e-01|  5.0000e-01|   -4.798646|   -4.854711|   -5.490529|   -5.512452|   -5.080626|   -8.021282|    2.283740|
|         115|  5.8694e+00|  6.8599e-09|  7.7120e-01|  5.0000e-01|  5.0000e-01|  5.0000e-01|   -4.798298|   -4.854263|   -5.490190|   -5.512305|   -5.080215|   -8.021121|    2.283439|
|         116|  5.8700e+00|  6.8597e-09|  7.7120e-01|  5.0000e-01|  5.0000e-01|  5.0000e-01|   -4.797956|   -4.853822|   -5.489851|   -5.512161|   -5.079809|   -8.020959|    2.283138|
|         117|  5.8705e+00|  6.8595e-09|  7.7120e-01|  5.0000e-01|  5.0000e-01|  5.0000e-01|   -4.797618|   -4.853387|   -5.489516|   -5.512021|   -5.079407|   -8.020796|    2.282837|
|         118|  5.8706e+00|  6.8592e-09|  7.7120e-01|  5.0000e-01|  5.0000e-01|  5.0000e-01|   -4.797287|   -4.852959|   -5.489184|   -5.511885|   -5.079012|   -8.020629|    2.282536|
|         119|  5.8709e+00|  6.8590e-09|  7.7120e-01|  5.0000e-01|  5.0000e-01|  5.0000e-01|   -4.796961|   -4.852537|   -5.488854|   -5.511752|   -5.078621|   -8.020461|    2.282236|
|         120|  5.8711e+00|  6.8587e-09|  7.7120e-01|  5.0000e-01|  5.0000e-01|  5.0000e-01|   -4.796642|   -4.852123|   -5.488524|   -5.511626|   -5.078237|   -8.020289|    2.281936|
|         121|  5.8708e+00|  6.8585e-09|  7.7120e-01|  5.0000e-01|  5.0000e-01|  5.0000e-01|   -4.796328|   -4.851714|   -5.488194|   -5.511502|   -5.077857|   -8.020116|    2.281636|
|         122|  5.8711e+00|  6.8583e-09|  7.7120e-01|  5.0000e-01|  5.0000e-01|  5.0000e-01|   -4.796019|   -4.851312|   -5.487864|   -5.511382|   -5.077482|   -8.019939|    2.281336|
|         123|  5.8710e+00|  6.8580e-09|  7.7120e-01|  5.0000e-01|  5.0000e-01|  5.0000e-01|   -4.795717|   -4.850917|   -5.487537|   -5.511267|   -5.077113|   -8.019760|    2.281037|
|         124|  5.8703e+00|  6.8578e-09|  7.7120e-01|  5.0000e-01|  5.0000e-01|  5.0000e-01|   -4.795421|   -4.850529|   -5.487210|   -5.511155|   -5.076751|   -8.019578|    2.280738|
|         125|  5.8702e+00|  6.8576e-09|  7.7120e-01|  5.0000e-01|  5.0000e-01|  5.0000e-01|   -4.795128|   -4.850146|   -5.486882|   -5.511045|   -5.076392|   -8.019393|    2.280439|
|         126|  5.8714e+00|  6.8573e-09|  7.7120e-01|  5.0000e-01|  5.0000e-01|  5.0000e-01|   -4.794842|   -4.849769|   -5.486557|   -5.510939|   -5.076038|   -8.019206|    2.280140|
|         127|  5.8734e+00|  6.8571e-09|  7.7120e-01|  5.0000e-01|  5.0000e-01|  5.0000e-01|   -4.794561|   -4.849399|   -5.486234|   -5.510834|   -5.075690|   -8.019015|    2.279842|
|         128|  5.8742e+00|  6.8569e-09|  7.7120e-01|  5.0000e-01|  5.0000e-01|  5.0000e-01|   -4.794284|   -4.849035|   -5.485909|   -5.510731|   -5.075345|   -8.018821|    2.279544|
|         129|  5.8744e+00|  6.8567e-09|  7.7120e-01|  5.0000e-01|  5.0000e-01|  5.0000e-01|   -4.794012|   -4.848676|   -5.485585|   -5.510631|   -5.075005|   -8.018625|    2.279246|
|         130|  5.8743e+00|  6.8564e-09|  7.7120e-01|  5.0000e-01|  5.0000e-01|  5.0000e-01|   -4.793741|   -4.848319|   -5.485260|   -5.510532|   -5.074665|   -8.018425|    2.278949|
|         131|  5.8744e+00|  6.8562e-09|  7.7120e-01|  5.0000e-01|  5.0000e-01|  5.0000e-01|   -4.793475|   -4.847967|   -5.484936|   -5.510437|   -5.074329|   -8.018222|    2.278652|
|         132|  5.8749e+00|  6.8560e-09|  7.7120e-01|  5.0000e-01|  5.0000e-01|  5.0000e-01|   -4.793214|   -4.847621|   -5.484613|   -5.510345|   -5.073998|   -8.018015|    2.278355|
|         133|  5.8743e+00|  6.8558e-09|  7.7120e-01|  5.0000e-01|  5.0000e-01|  5.0000e-01|   -4.792958|   -4.847281|   -5.484291|   -5.510255|   -5.073672|   -8.017806|    2.278058|
|         134|  5.8746e+00|  6.8556e-09|  7.7120e-01|  5.0000e-01|  5.0000e-01|  5.0000e-01|   -4.792705|   -4.846946|   -5.483969|   -5.510167|   -5.073349|   -8.017593|    2.277762|
|         135|  5.8745e+00|  6.8554e-09|  7.7120e-01|  5.0000e-01|  5.0000e-01|  5.0000e-01|   -4.792458|   -4.846617|   -5.483648|   -5.510080|   -5.073031|   -8.017377|    2.277466|
|         136|  5.8739e+00|  6.8552e-09|  7.7120e-01|  5.0000e-01|  5.0000e-01|  5.0000e-01|   -4.792215|   -4.846294|   -5.483330|   -5.509995|   -5.072718|   -8.017157|    2.277170|
|         137|  5.8734e+00|  6.8549e-09|  7.7120e-01|  5.0000e-01|  5.0000e-01|  5.0000e-01|   -4.791976|   -4.845976|   -5.483013|   -5.509913|   -5.072409|   -8.016934|    2.276875|
|         138|  5.8737e+00|  6.8547e-09|  7.7120e-01|  5.0000e-01|  5.0000e-01|  5.0000e-01|   -4.791742|   -4.845663|   -5.482697|   -5.509833|   -5.072104|   -8.016708|    2.276580|
|         139|  5.8739e+00|  6.8545e-09|  7.7120e-01|  5.0000e-01|  5.0000e-01|  5.0000e-01|   -4.791513|   -4.845356|   -5.482384|   -5.509757|   -5.071804|   -8.016477|    2.276285|
|         140|  5.8739e+00|  6.8543e-09|  7.7120e-01|  5.0000e-01|  5.0000e-01|  5.0000e-01|   -4.791288|   -4.845054|   -5.482074|   -5.509684|   -5.071510|   -8.016244|    2.275991|
|         141|  5.8735e+00|  6.8541e-09|  7.7120e-01|  5.0000e-01|  5.0000e-01|  5.0000e-01|   -4.791069|   -4.844758|   -5.481767|   -5.509613|   -5.071220|   -8.016007|    2.275697|
|         142|  5.8730e+00|  6.8539e-09|  7.7120e-01|  5.0000e-01|  5.0000e-01|  5.0000e-01|   -4.790853|   -4.844467|   -5.481460|   -5.509542|   -5.070933|   -8.015766|    2.275403|
|         143|  5.8726e+00|  6.8537e-09|  7.7120e-01|  5.0000e-01|  5.0000e-01|  5.0000e-01|   -4.790642|   -4.844182|   -5.481155|   -5.509474|   -5.070651|   -8.015521|    2.275109|
|         144|  5.8726e+00|  6.8535e-09|  7.7120e-01|  5.0000e-01|  5.0000e-01|  5.0000e-01|   -4.790434|   -4.843901|   -5.480852|   -5.509406|   -5.070373|   -8.015273|    2.274816|
|         145|  5.8725e+00|  6.8534e-09|  7.7120e-01|  5.0000e-01|  5.0000e-01|  5.0000e-01|   -4.790231|   -4.843626|   -5.480551|   -5.509340|   -5.070100|   -8.015021|    2.274523|
|         146|  5.8721e+00|  6.8532e-09|  7.7120e-01|  5.0000e-01|  5.0000e-01|  5.0000e-01|   -4.790033|   -4.843355|   -5.480255|   -5.509275|   -5.069831|   -8.014766|    2.274230|
|         147|  5.8720e+00|  6.8530e-09|  7.7120e-01|  5.0000e-01|  5.0000e-01|  5.0000e-01|   -4.789840|   -4.843091|   -5.479962|   -5.509214|   -5.069567|   -8.014506|    2.273938|
|         148|  5.8721e+00|  6.8528e-09|  7.7120e-01|  5.0000e-01|  5.0000e-01|  5.0000e-01|   -4.789650|   -4.842831|   -5.479671|   -5.509153|   -5.069307|   -8.014243|    2.273646|
|         149|  5.8726e+00|  6.8526e-09|  7.7120e-01|  5.0000e-01|  5.0000e-01|  5.0000e-01|   -4.789464|   -4.842576|   -5.479381|   -5.509094|   -5.069051|   -8.013976|    2.273354|
|         150|  5.8726e+00|  6.8524e-09|  7.7120e-01|  5.0000e-01|  5.0000e-01|  5.0000e-01|   -4.789283|   -4.842326|   -5.479093|   -5.509037|   -5.068800|   -8.013705|    2.273063|
+-----------------------------------------------------------------------+
|        File Writing Summary       |              Filename             |
+-----------------------------------------------------------------------+
|SU2 binary restart                 |restart_flow.dat                   |
|Paraview                           |flow.vtu                           |
|Paraview surface                   |surface_flow.vtu                   |
+-----------------------------------------------------------------------+
+-------------------------------------------------------------------------------------------------------------------------------------------------------------------------------------+
|  Inner_Iter|   Time(sec)|      Min DT|      Max DT|     Min CFL|     Max CFL|     Avg CFL|    rms[Rho]|   rms[RhoU]|   rms[RhoV]|   rms[RhoW]|   rms[RhoE]|     rms[nu]|          CD|
+-------------------------------------------------------------------------------------------------------------------------------------------------------------------------------------+
|         151|  6.0319e+00|  6.8522e-09|  7.7120e-01|  5.0000e-01|  5.0000e-01|  5.0000e-01|   -4.789106|   -4.842081|   -5.478806|   -5.508982|   -5.068552|   -8.013431|    2.272772|
|         152|  6.0343e+00|  6.8521e-09|  7.7120e-01|  5.0000e-01|  5.0000e-01|  5.0000e-01|   -4.788932|   -4.841841|   -5.478520|   -5.508929|   -5.068307|   -8.013152|    2.272481|
|         153|  6.0359e+00|  6.8519e-09|  7.7120e-01|  5.0000e-01|  5.0000e-01|  5.0000e-01|   -4.788763|   -4.841606|   -5.478235|   -5.508877|   -5.068068|   -8.012870|    2.272191|
|         154|  6.0362e+00|  6.8517e-09|  7.7120e-01|  5.0000e-01|  5.0000e-01|  5.0000e-01|   -4.788598|   -4.841376|   -5.477953|   -5.508829|   -5.067832|   -8.012584|    2.271901|
|         155|  6.0358e+00|  6.8515e-09|  7.7120e-01|  5.0000e-01|  5.0000e-01|  5.0000e-01|   -4.788438|   -4.841151|   -5.477672|   -5.508782|   -5.067600|   -8.012294|    2.271611|
|         156|  6.0355e+00|  6.8514e-09|  7.7120e-01|  5.0000e-01|  5.0000e-01|  5.0000e-01|   -4.788281|   -4.840930|   -5.477392|   -5.508737|   -5.067373|   -8.012001|    2.271322|
|         157|  6.0354e+00|  6.8512e-09|  7.7120e-01|  5.0000e-01|  5.0000e-01|  5.0000e-01|   -4.788128|   -4.840713|   -5.477114|   -5.508693|   -5.067149|   -8.011703|    2.271033|
|         158|  6.0341e+00|  6.8510e-09|  7.7120e-01|  5.0000e-01|  5.0000e-01|  5.0000e-01|   -4.787979|   -4.840501|   -5.476836|   -5.508651|   -5.066928|   -8.011402|    2.270744|
|         159|  6.0329e+00|  6.8509e-09|  7.7120e-01|  5.0000e-01|  5.0000e-01|  5.0000e-01|   -4.787834|   -4.840294|   -5.476559|   -5.508608|   -5.066712|   -8.011097|    2.270456|
|         160|  6.0316e+00|  6.8507e-09|  7.7120e-01|  5.0000e-01|  5.0000e-01|  5.0000e-01|   -4.787693|   -4.840092|   -5.476282|   -5.508566|   -5.066499|   -8.010788|    2.270168|
|         161|  6.0316e+00|  6.8505e-09|  7.7120e-01|  5.0000e-01|  5.0000e-01|  5.0000e-01|   -4.787556|   -4.839894|   -5.476007|   -5.508526|   -5.066291|   -8.010476|    2.269880|
|         162|  6.0303e+00|  6.8504e-09|  7.7120e-01|  5.0000e-01|  5.0000e-01|  5.0000e-01|   -4.787423|   -4.839701|   -5.475735|   -5.508488|   -5.066087|   -8.010160|    2.269593|
|         163|  6.0290e+00|  6.8502e-09|  7.7120e-01|  5.0000e-01|  5.0000e-01|  5.0000e-01|   -4.787295|   -4.839514|   -5.475466|   -5.508450|   -5.065887|   -8.009840|    2.269306|
|         164|  6.0277e+00|  6.8501e-09|  7.7120e-01|  5.0000e-01|  5.0000e-01|  5.0000e-01|   -4.787170|   -4.839331|   -5.475197|   -5.508413|   -5.065690|   -8.009517|    2.269019|
|         165|  6.0269e+00|  6.8499e-09|  7.7120e-01|  5.0000e-01|  5.0000e-01|  5.0000e-01|   -4.787049|   -4.839153|   -5.474929|   -5.508376|   -5.065497|   -8.009189|    2.268733|
|         166|  6.0253e+00|  6.8498e-09|  7.7120e-01|  5.0000e-01|  5.0000e-01|  5.0000e-01|   -4.786931|   -4.838979|   -5.474661|   -5.508339|   -5.065308|   -8.008859|    2.268446|
|         167|  6.0243e+00|  6.8496e-09|  7.7120e-01|  5.0000e-01|  5.0000e-01|  5.0000e-01|   -4.786818|   -4.838811|   -5.474395|   -5.508303|   -5.065123|   -8.008524|    2.268161|
|         168|  6.0227e+00|  6.8495e-09|  7.7120e-01|  5.0000e-01|  5.0000e-01|  5.0000e-01|   -4.786709|   -4.838647|   -5.474130|   -5.508267|   -5.064942|   -8.008187|    2.267875|
|         169|  6.0213e+00|  6.8493e-09|  7.7120e-01|  5.0000e-01|  5.0000e-01|  5.0000e-01|   -4.786604|   -4.838488|   -5.473868|   -5.508233|   -5.064766|   -8.007846|    2.267590|
|         170|  6.0198e+00|  6.8492e-09|  7.7120e-01|  5.0000e-01|  5.0000e-01|  5.0000e-01|   -4.786503|   -4.838334|   -5.473607|   -5.508200|   -5.064593|   -8.007501|    2.267306|
|         171|  6.0182e+00|  6.8490e-09|  7.7120e-01|  5.0000e-01|  5.0000e-01|  5.0000e-01|   -4.786405|   -4.838185|   -5.473349|   -5.508168|   -5.064424|   -8.007153|    2.267021|
|         172|  6.0169e+00|  6.8489e-09|  7.7120e-01|  5.0000e-01|  5.0000e-01|  5.0000e-01|   -4.786312|   -4.838040|   -5.473090|   -5.508138|   -5.064260|   -8.006801|    2.266737|
|         173|  6.0154e+00|  6.8487e-09|  7.7120e-01|  5.0000e-01|  5.0000e-01|  5.0000e-01|   -4.786221|   -4.837899|   -5.472831|   -5.508109|   -5.064098|   -8.006447|    2.266453|
|         174|  6.0144e+00|  6.8486e-09|  7.7120e-01|  5.0000e-01|  5.0000e-01|  5.0000e-01|   -4.786133|   -4.837761|   -5.472572|   -5.508080|   -5.063938|   -8.006089|    2.266170|
|         175|  6.0130e+00|  6.8485e-09|  7.7120e-01|  5.0000e-01|  5.0000e-01|  5.0000e-01|   -4.786047|   -4.837626|   -5.472314|   -5.508051|   -5.063781|   -8.005728|    2.265887|
|         176|  6.0121e+00|  6.8483e-09|  7.7120e-01|  5.0000e-01|  5.0000e-01|  5.0000e-01|   -4.785964|   -4.837495|   -5.472057|   -5.508022|   -5.063627|   -8.005363|    2.265604|
|         177|  6.0109e+00|  6.8482e-09|  7.7120e-01|  5.0000e-01|  5.0000e-01|  5.0000e-01|   -4.785885|   -4.837369|   -5.471802|   -5.507993|   -5.063476|   -8.004996|    2.265322|
|         178|  6.0096e+00|  6.8481e-09|  7.7120e-01|  5.0000e-01|  5.0000e-01|  5.0000e-01|   -4.785809|   -4.837246|   -5.471547|   -5.507965|   -5.063329|   -8.004625|    2.265040|
|         179|  6.0088e+00|  6.8480e-09|  7.7120e-01|  5.0000e-01|  5.0000e-01|  5.0000e-01|   -4.785736|   -4.837128|   -5.471293|   -5.507937|   -5.063185|   -8.004252|    2.264758|
|         180|  6.0077e+00|  6.8478e-09|  7.7120e-01|  5.0000e-01|  5.0000e-01|  5.0000e-01|   -4.785667|   -4.837014|   -5.471041|   -5.507910|   -5.063046|   -8.003875|    2.264476|
|         181|  6.0062e+00|  6.8477e-09|  7.7120e-01|  5.0000e-01|  5.0000e-01|  5.0000e-01|   -4.785599|   -4.836901|   -5.470791|   -5.507885|   -5.062908|   -8.003496|    2.264195|
|         182|  6.0051e+00|  6.8476e-09|  7.7120e-01|  5.0000e-01|  5.0000e-01|  5.0000e-01|   -4.785534|   -4.836792|   -5.470539|   -5.507858|   -5.062772|   -8.003114|    2.263915|
|         183|  6.0039e+00|  6.8475e-09|  7.7120e-01|  5.0000e-01|  5.0000e-01|  5.0000e-01|   -4.785471|   -4.836687|   -5.470290|   -5.507830|   -5.062639|   -8.002729|    2.263634|
|         184|  6.0027e+00|  6.8473e-09|  7.7120e-01|  5.0000e-01|  5.0000e-01|  5.0000e-01|   -4.785412|   -4.836585|   -5.470042|   -5.507803|   -5.062509|   -8.002342|    2.263354|
|         185|  6.0021e+00|  6.8472e-09|  7.7120e-01|  5.0000e-01|  5.0000e-01|  5.0000e-01|   -4.785352|   -4.836483|   -5.469793|   -5.507773|   -5.062378|   -8.001952|    2.263074|
|         186|  6.0011e+00|  6.8471e-09|  7.7120e-01|  5.0000e-01|  5.0000e-01|  5.0000e-01|   -4.785294|   -4.836383|   -5.469543|   -5.507744|   -5.062249|   -8.001560|    2.262795|
|         187|  5.9997e+00|  6.8470e-09|  7.7120e-01|  5.0000e-01|  5.0000e-01|  5.0000e-01|   -4.785238|   -4.836288|   -5.469295|   -5.507715|   -5.062122|   -8.001166|    2.262516|
|         188|  5.9984e+00|  6.8469e-09|  7.7120e-01|  5.0000e-01|  5.0000e-01|  5.0000e-01|   -4.785184|   -4.836195|   -5.469047|   -5.507685|   -5.061998|   -8.000769|    2.262237|
|         189|  5.9975e+00|  6.8468e-09|  7.7120e-01|  5.0000e-01|  5.0000e-01|  5.0000e-01|   -4.785134|   -4.836106|   -5.468802|   -5.507656|   -5.061877|   -8.000370|    2.261958|
|         190|  5.9966e+00|  6.8467e-09|  7.7120e-01|  5.0000e-01|  5.0000e-01|  5.0000e-01|   -4.785087|   -4.836021|   -5.468558|   -5.507629|   -5.061760|   -7.999969|    2.261680|
|         191|  5.9959e+00|  6.8466e-09|  7.7120e-01|  5.0000e-01|  5.0000e-01|  5.0000e-01|   -4.785043|   -4.835940|   -5.468317|   -5.507601|   -5.061647|   -7.999566|    2.261402|
|         192|  5.9945e+00|  6.8465e-09|  7.7120e-01|  5.0000e-01|  5.0000e-01|  5.0000e-01|   -4.785002|   -4.835862|   -5.468078|   -5.507573|   -5.061537|   -7.999161|    2.261125|
|         193|  5.9935e+00|  6.8464e-09|  7.7120e-01|  5.0000e-01|  5.0000e-01|  5.0000e-01|   -4.784964|   -4.835788|   -5.467840|   -5.507545|   -5.061429|   -7.998754|    2.260848|
|         194|  5.9923e+00|  6.8463e-09|  7.7120e-01|  5.0000e-01|  5.0000e-01|  5.0000e-01|   -4.784928|   -4.835716|   -5.467604|   -5.507517|   -5.061324|   -7.998345|    2.260571|
|         195|  5.9919e+00|  6.8462e-09|  7.7120e-01|  5.0000e-01|  5.0000e-01|  5.0000e-01|   -4.784894|   -4.835647|   -5.467367|   -5.507488|   -5.061221|   -7.997935|    2.260295|
|         196|  5.9908e+00|  6.8461e-09|  7.7120e-01|  5.0000e-01|  5.0000e-01|  5.0000e-01|   -4.784864|   -4.835582|   -5.467133|   -5.507463|   -5.061122|   -7.997524|    2.260018|
|         197|  5.9901e+00|  6.8460e-09|  7.7120e-01|  5.0000e-01|  5.0000e-01|  5.0000e-01|   -4.784837|   -4.835520|   -5.466900|   -5.507438|   -5.061025|   -7.997111|    2.259743|
|         198|  5.9892e+00|  6.8459e-09|  7.7120e-01|  5.0000e-01|  5.0000e-01|  5.0000e-01|   -4.784812|   -4.835461|   -5.466665|   -5.507412|   -5.060931|   -7.996696|    2.259467|
|         199|  5.9883e+00|  6.8458e-09|  7.7120e-01|  5.0000e-01|  5.0000e-01|  5.0000e-01|   -4.784789|   -4.835406|   -5.466431|   -5.507384|   -5.060840|   -7.996281|    2.259192|
|         200|  5.9875e+00|  6.8457e-09|  7.7120e-01|  5.0000e-01|  5.0000e-01|  5.0000e-01|   -4.784770|   -4.835354|   -5.466200|   -5.507355|   -5.060752|   -7.995864|    2.258917|
|         201|  5.9869e+00|  6.8456e-09|  7.7121e-01|  5.0000e-01|  5.0000e-01|  5.0000e-01|   -4.784754|   -4.835306|   -5.465967|   -5.507323|   -5.060667|   -7.995446|    2.258643|
|         202|  5.9862e+00|  6.8455e-09|  7.7121e-01|  5.0000e-01|  5.0000e-01|  5.0000e-01|   -4.784740|   -4.835261|   -5.465736|   -5.507291|   -5.060584|   -7.995028|    2.258369|
|         203|  5.9847e+00|  6.8455e-09|  7.7121e-01|  5.0000e-01|  5.0000e-01|  5.0000e-01|   -4.784729|   -4.835220|   -5.465507|   -5.507259|   -5.060505|   -7.994609|    2.258095|
|         204|  5.9837e+00|  6.8454e-09|  7.7121e-01|  5.0000e-01|  5.0000e-01|  5.0000e-01|   -4.784721|   -4.835182|   -5.465281|   -5.507226|   -5.060429|   -7.994189|    2.257822|
|         205|  5.9829e+00|  6.8453e-09|  7.7121e-01|  5.0000e-01|  5.0000e-01|  5.0000e-01|   -4.784715|   -4.835147|   -5.465056|   -5.507191|   -5.060355|   -7.993768|    2.257549|
|         206|  5.9816e+00|  6.8452e-09|  7.7121e-01|  5.0000e-01|  5.0000e-01|  5.0000e-01|   -4.784711|   -4.835115|   -5.464830|   -5.507153|   -5.060284|   -7.993347|    2.257276|
|         207|  5.9802e+00|  6.8451e-09|  7.7121e-01|  5.0000e-01|  5.0000e-01|  5.0000e-01|   -4.784710|   -4.835086|   -5.464607|   -5.507115|   -5.060215|   -7.992926|    2.257004|
|         208|  5.9792e+00|  6.8451e-09|  7.7121e-01|  5.0000e-01|  5.0000e-01|  5.0000e-01|   -4.784710|   -4.835060|   -5.464384|   -5.507076|   -5.060148|   -7.992505|    2.256732|
|         209|  5.9779e+00|  6.8450e-09|  7.7121e-01|  5.0000e-01|  5.0000e-01|  5.0000e-01|   -4.784712|   -4.835036|   -5.464161|   -5.507035|   -5.060083|   -7.992083|    2.256460|
|         210|  5.9769e+00|  6.8449e-09|  7.7121e-01|  5.0000e-01|  5.0000e-01|  5.0000e-01|   -4.784717|   -4.835016|   -5.463939|   -5.506992|   -5.060020|   -7.991662|    2.256189|
|         211|  5.9757e+00|  6.8448e-09|  7.7121e-01|  5.0000e-01|  5.0000e-01|  5.0000e-01|   -4.784724|   -4.834998|   -5.463718|   -5.506948|   -5.059960|   -7.991240|    2.255918|
|         212|  5.9744e+00|  6.8448e-09|  7.7121e-01|  5.0000e-01|  5.0000e-01|  5.0000e-01|   -4.784733|   -4.834984|   -5.463500|   -5.506904|   -5.059903|   -7.990819|    2.255647|
|         213|  5.9736e+00|  6.8447e-09|  7.7121e-01|  5.0000e-01|  5.0000e-01|  5.0000e-01|   -4.784744|   -4.834971|   -5.463282|   -5.506857|   -5.059847|   -7.990399|    2.255377|
|         214|  5.9724e+00|  6.8446e-09|  7.7121e-01|  5.0000e-01|  5.0000e-01|  5.0000e-01|   -4.784757|   -4.834962|   -5.463065|   -5.506810|   -5.059794|   -7.989979|    2.255107|
|         215|  5.9714e+00|  6.8446e-09|  7.7121e-01|  5.0000e-01|  5.0000e-01|  5.0000e-01|   -4.784772|   -4.834954|   -5.462851|   -5.506764|   -5.059743|   -7.989559|    2.254838|
|         216|  5.9704e+00|  6.8445e-09|  7.7121e-01|  5.0000e-01|  5.0000e-01|  5.0000e-01|   -4.784789|   -4.834950|   -5.462638|   -5.506715|   -5.059695|   -7.989140|    2.254569|
|         217|  5.9690e+00|  6.8445e-09|  7.7121e-01|  5.0000e-01|  5.0000e-01|  5.0000e-01|   -4.784809|   -4.834949|   -5.462427|   -5.506667|   -5.059650|   -7.988722|    2.254300|
|         218|  5.9682e+00|  6.8444e-09|  7.7121e-01|  5.0000e-01|  5.0000e-01|  5.0000e-01|   -4.784831|   -4.834951|   -5.462218|   -5.506618|   -5.059607|   -7.988305|    2.254032|
|         219|  5.9668e+00|  6.8443e-09|  7.7121e-01|  5.0000e-01|  5.0000e-01|  5.0000e-01|   -4.784855|   -4.834955|   -5.462010|   -5.506566|   -5.059566|   -7.987889|    2.253764|
|         220|  5.9659e+00|  6.8443e-09|  7.7121e-01|  5.0000e-01|  5.0000e-01|  5.0000e-01|   -4.784881|   -4.834962|   -5.461803|   -5.506515|   -5.059528|   -7.987474|    2.253497|
|         221|  5.9649e+00|  6.8442e-09|  7.7121e-01|  5.0000e-01|  5.0000e-01|  5.0000e-01|   -4.784909|   -4.834972|   -5.461598|   -5.506462|   -5.059492|   -7.987060|    2.253230|
|         222|  5.9635e+00|  6.8442e-09|  7.7121e-01|  5.0000e-01|  5.0000e-01|  5.0000e-01|   -4.784939|   -4.834984|   -5.461393|   -5.506409|   -5.059459|   -7.986648|    2.252963|
|         223|  5.9627e+00|  6.8441e-09|  7.7121e-01|  5.0000e-01|  5.0000e-01|  5.0000e-01|   -4.784971|   -4.834999|   -5.461189|   -5.506354|   -5.059427|   -7.986238|    2.252697|
|         224|  5.9622e+00|  6.8441e-09|  7.7121e-01|  5.0000e-01|  5.0000e-01|  5.0000e-01|   -4.785003|   -4.835016|   -5.460984|   -5.506297|   -5.059396|   -7.985829|    2.252431|
|         225|  5.9623e+00|  6.8440e-09|  7.7121e-01|  5.0000e-01|  5.0000e-01|  5.0000e-01|   -4.785038|   -4.835035|   -5.460783|   -5.506242|   -5.059368|   -7.985422|    2.252166|
|         226|  5.9619e+00|  6.8440e-09|  7.7121e-01|  5.0000e-01|  5.0000e-01|  5.0000e-01|   -4.785075|   -4.835057|   -5.460585|   -5.506185|   -5.059343|   -7.985017|    2.251901|
|         227|  5.9610e+00|  6.8439e-09|  7.7121e-01|  5.0000e-01|  5.0000e-01|  5.0000e-01|   -4.785112|   -4.835081|   -5.460386|   -5.506127|   -5.059319|   -7.984614|    2.251637|
|         228|  5.9600e+00|  6.8439e-09|  7.7121e-01|  5.0000e-01|  5.0000e-01|  5.0000e-01|   -4.785150|   -4.835107|   -5.460187|   -5.506068|   -5.059295|   -7.984214|    2.251373|
|         229|  5.9593e+00|  6.8439e-09|  7.7121e-01|  5.0000e-01|  5.0000e-01|  5.0000e-01|   -4.785189|   -4.835134|   -5.459987|   -5.506008|   -5.059273|   -7.983815|    2.251109|
|         230|  5.9584e+00|  6.8438e-09|  7.7121e-01|  5.0000e-01|  5.0000e-01|  5.0000e-01|   -4.785229|   -4.835163|   -5.459788|   -5.505945|   -5.059252|   -7.983420|    2.250846|
|         231|  5.9572e+00|  6.8438e-09|  7.7121e-01|  5.0000e-01|  5.0000e-01|  5.0000e-01|   -4.785270|   -4.835193|   -5.459588|   -5.505881|   -5.059232|   -7.983027|    2.250583|
|         232|  5.9566e+00|  6.8437e-09|  7.7121e-01|  5.0000e-01|  5.0000e-01|  5.0000e-01|   -4.785312|   -4.835225|   -5.459390|   -5.505816|   -5.059214|   -7.982636|    2.250321|
|         233|  5.9560e+00|  6.8437e-09|  7.7121e-01|  5.0000e-01|  5.0000e-01|  5.0000e-01|   -4.785354|   -4.835258|   -5.459191|   -5.505748|   -5.059197|   -7.982248|    2.250059|
|         234|  5.9550e+00|  6.8437e-09|  7.7121e-01|  5.0000e-01|  5.0000e-01|  5.0000e-01|   -4.785397|   -4.835292|   -5.458995|   -5.505678|   -5.059180|   -7.981864|    2.249798|
|         235|  5.9540e+00|  6.8436e-09|  7.7121e-01|  5.0000e-01|  5.0000e-01|  5.0000e-01|   -4.785441|   -4.835328|   -5.458800|   -5.505607|   -5.059166|   -7.981482|    2.249537|
|         236|  5.9533e+00|  6.8436e-09|  7.7121e-01|  5.0000e-01|  5.0000e-01|  5.0000e-01|   -4.785486|   -4.835365|   -5.458605|   -5.505534|   -5.059152|   -7.981104|    2.249277|
|         237|  5.9526e+00|  6.8436e-09|  7.7121e-01|  5.0000e-01|  5.0000e-01|  5.0000e-01|   -4.785531|   -4.835403|   -5.458413|   -5.505460|   -5.059140|   -7.980728|    2.249017|
|         238|  5.9514e+00|  6.8436e-09|  7.7121e-01|  5.0000e-01|  5.0000e-01|  5.0000e-01|   -4.785577|   -4.835443|   -5.458221|   -5.505384|   -5.059128|   -7.980357|    2.248757|
|         239|  5.9503e+00|  6.8435e-09|  7.7121e-01|  5.0000e-01|  5.0000e-01|  5.0000e-01|   -4.785623|   -4.835483|   -5.458028|   -5.505304|   -5.059117|   -7.979989|    2.248499|
|         240|  5.9495e+00|  6.8435e-09|  7.7121e-01|  5.0000e-01|  5.0000e-01|  5.0000e-01|   -4.785669|   -4.835525|   -5.457838|   -5.505223|   -5.059108|   -7.979625|    2.248240|
|         241|  5.9488e+00|  6.8435e-09|  7.7121e-01|  5.0000e-01|  5.0000e-01|  5.0000e-01|   -4.785716|   -4.835568|   -5.457650|   -5.505139|   -5.059099|   -7.979264|    2.247982|
|         242|  5.9478e+00|  6.8435e-09|  7.7121e-01|  5.0000e-01|  5.0000e-01|  5.0000e-01|   -4.785764|   -4.835612|   -5.457464|   -5.505053|   -5.059092|   -7.978908|    2.247725|
|         243|  5.9468e+00|  6.8434e-09|  7.7121e-01|  5.0000e-01|  5.0000e-01|  5.0000e-01|   -4.785811|   -4.835657|   -5.457278|   -5.504966|   -5.059085|   -7.978555|    2.247468|
|         244|  5.9458e+00|  6.8434e-09|  7.7121e-01|  5.0000e-01|  5.0000e-01|  5.0000e-01|   -4.785859|   -4.835703|   -5.457091|   -5.504876|   -5.059079|   -7.978207|    2.247212|
|         245|  5.9452e+00|  6.8434e-09|  7.7121e-01|  5.0000e-01|  5.0000e-01|  5.0000e-01|   -4.785906|   -4.835748|   -5.456905|   -5.504783|   -5.059073|   -7.977863|    2.246956|
|         246|  5.9449e+00|  6.8434e-09|  7.7121e-01|  5.0000e-01|  5.0000e-01|  5.0000e-01|   -4.785952|   -4.835794|   -5.456721|   -5.504688|   -5.059067|   -7.977524|    2.246701|
|         247|  5.9444e+00|  6.8434e-09|  7.7121e-01|  5.0000e-01|  5.0000e-01|  5.0000e-01|   -4.785999|   -4.835841|   -5.456537|   -5.504591|   -5.059062|   -7.977189|    2.246446|
|         248|  5.9436e+00|  6.8433e-09|  7.7121e-01|  5.0000e-01|  5.0000e-01|  5.0000e-01|   -4.786046|   -4.835888|   -5.456355|   -5.504490|   -5.059056|   -7.976858|    2.246192|
|         249|  5.9432e+00|  6.8433e-09|  7.7121e-01|  5.0000e-01|  5.0000e-01|  5.0000e-01|   -4.786092|   -4.835936|   -5.456174|   -5.504387|   -5.059052|   -7.976532|    2.245939|
|         250|  5.9422e+00|  6.8433e-09|  7.7121e-01|  5.0000e-01|  5.0000e-01|  5.0000e-01|   -4.786138|   -4.835984|   -5.455992|   -5.504281|   -5.059047|   -7.976211|    2.245686|
|         251|  5.9414e+00|  6.8433e-09|  7.7121e-01|  5.0000e-01|  5.0000e-01|  5.0000e-01|   -4.786184|   -4.836032|   -5.455809|   -5.504172|   -5.059043|   -7.975895|    2.245434|
|         252|  5.9408e+00|  6.8433e-09|  7.7121e-01|  5.0000e-01|  5.0000e-01|  5.0000e-01|   -4.786230|   -4.836080|   -5.455627|   -5.504060|   -5.059038|   -7.975584|    2.245182|
|         253|  5.9405e+00|  6.8433e-09|  7.7121e-01|  5.0000e-01|  5.0000e-01|  5.0000e-01|   -4.786274|   -4.836128|   -5.455445|   -5.503944|   -5.059034|   -7.975278|    2.244931|
|         254|  5.9405e+00|  6.8433e-09|  7.7121e-01|  5.0000e-01|  5.0000e-01|  5.0000e-01|   -4.786318|   -4.836175|   -5.455262|   -5.503824|   -5.059028|   -7.974977|    2.244680|
|         255|  5.9399e+00|  6.8433e-09|  7.7121e-01|  5.0000e-01|  5.0000e-01|  5.0000e-01|   -4.786360|   -4.836222|   -5.455080|   -5.503700|   -5.059022|   -7.974682|    2.244430|
|         256|  5.9391e+00|  6.8433e-09|  7.7121e-01|  5.0000e-01|  5.0000e-01|  5.0000e-01|   -4.786402|   -4.836268|   -5.454898|   -5.503572|   -5.059016|   -7.974392|    2.244181|
|         257|  5.9387e+00|  6.8433e-09|  7.7121e-01|  5.0000e-01|  5.0000e-01|  5.0000e-01|   -4.786443|   -4.836314|   -5.454716|   -5.503442|   -5.059009|   -7.974107|    2.243932|
|         258|  5.9382e+00|  6.8433e-09|  7.7121e-01|  5.0000e-01|  5.0000e-01|  5.0000e-01|   -4.786482|   -4.836358|   -5.454536|   -5.503309|   -5.059001|   -7.973828|    2.243684|
|         259|  5.9383e+00|  6.8433e-09|  7.7121e-01|  5.0000e-01|  5.0000e-01|  5.0000e-01|   -4.786521|   -4.836402|   -5.454356|   -5.503172|   -5.058993|   -7.973555|    2.243437|
|         260|  5.9377e+00|  6.8433e-09|  7.7121e-01|  5.0000e-01|  5.0000e-01|  5.0000e-01|   -4.786558|   -4.836444|   -5.454176|   -5.503031|   -5.058984|   -7.973288|    2.243190|
|         261|  5.9374e+00|  6.8433e-09|  7.7121e-01|  5.0000e-01|  5.0000e-01|  5.0000e-01|   -4.786594|   -4.836486|   -5.453994|   -5.502886|   -5.058973|   -7.973026|    2.242944|
|         262|  5.9366e+00|  6.8433e-09|  7.7121e-01|  5.0000e-01|  5.0000e-01|  5.0000e-01|   -4.786630|   -4.836526|   -5.453812|   -5.502738|   -5.058963|   -7.972770|    2.242698|
|         263|  5.9362e+00|  6.8433e-09|  7.7121e-01|  5.0000e-01|  5.0000e-01|  5.0000e-01|   -4.786665|   -4.836567|   -5.453634|   -5.502586|   -5.058953|   -7.972521|    2.242454|
|         264|  5.9361e+00|  6.8433e-09|  7.7121e-01|  5.0000e-01|  5.0000e-01|  5.0000e-01|   -4.786699|   -4.836606|   -5.453455|   -5.502431|   -5.058942|   -7.972278|    2.242210|
|         265|  5.9356e+00|  6.8433e-09|  7.7121e-01|  5.0000e-01|  5.0000e-01|  5.0000e-01|   -4.786732|   -4.836644|   -5.453275|   -5.502271|   -5.058929|   -7.972040|    2.241966|
|         266|  5.9353e+00|  6.8433e-09|  7.7121e-01|  5.0000e-01|  5.0000e-01|  5.0000e-01|   -4.786763|   -4.836681|   -5.453096|   -5.502107|   -5.058916|   -7.971810|    2.241723|
|         267|  5.9346e+00|  6.8433e-09|  7.7121e-01|  5.0000e-01|  5.0000e-01|  5.0000e-01|   -4.786793|   -4.836716|   -5.452916|   -5.501940|   -5.058901|   -7.971585|    2.241482|
|         268|  5.9354e+00|  6.8433e-09|  7.7121e-01|  5.0000e-01|  5.0000e-01|  5.0000e-01|   -4.786821|   -4.836750|   -5.452737|   -5.501770|   -5.058885|   -7.971367|    2.241240|
|         269|  5.9356e+00|  6.8433e-09|  7.7121e-01|  5.0000e-01|  5.0000e-01|  5.0000e-01|   -4.786848|   -4.836782|   -5.452556|   -5.501596|   -5.058868|   -7.971155|    2.241000|
|         270|  5.9352e+00|  6.8433e-09|  7.7121e-01|  5.0000e-01|  5.0000e-01|  5.0000e-01|   -4.786874|   -4.836813|   -5.452376|   -5.501419|   -5.058850|   -7.970949|    2.240760|
|         271|  5.9352e+00|  6.8433e-09|  7.7121e-01|  5.0000e-01|  5.0000e-01|  5.0000e-01|   -4.786899|   -4.836844|   -5.452196|   -5.501237|   -5.058831|   -7.970750|    2.240521|
|         272|  5.9348e+00|  6.8433e-09|  7.7121e-01|  5.0000e-01|  5.0000e-01|  5.0000e-01|   -4.786922|   -4.836872|   -5.452016|   -5.501050|   -5.058810|   -7.970558|    2.240282|
|         273|  5.9342e+00|  6.8434e-09|  7.7121e-01|  5.0000e-01|  5.0000e-01|  5.0000e-01|   -4.786944|   -4.836900|   -5.451835|   -5.500859|   -5.058789|   -7.970372|    2.240045|
|         274|  5.9335e+00|  6.8434e-09|  7.7121e-01|  5.0000e-01|  5.0000e-01|  5.0000e-01|   -4.786965|   -4.836927|   -5.451657|   -5.500667|   -5.058767|   -7.970194|    2.239808|
|         275|  5.9327e+00|  6.8434e-09|  7.7121e-01|  5.0000e-01|  5.0000e-01|  5.0000e-01|   -4.786985|   -4.836952|   -5.451478|   -5.500471|   -5.058744|   -7.970021|    2.239572|
|         276|  5.9321e+00|  6.8434e-09|  7.7121e-01|  5.0000e-01|  5.0000e-01|  5.0000e-01|   -4.787004|   -4.836978|   -5.451301|   -5.500272|   -5.058722|   -7.969856|    2.239336|
|         277|  5.9317e+00|  6.8434e-09|  7.7121e-01|  5.0000e-01|  5.0000e-01|  5.0000e-01|   -4.787023|   -4.837002|   -5.451125|   -5.500070|   -5.058699|   -7.969698|    2.239102|
|         278|  5.9314e+00|  6.8434e-09|  7.7121e-01|  5.0000e-01|  5.0000e-01|  5.0000e-01|   -4.787041|   -4.837026|   -5.450948|   -5.499865|   -5.058675|   -7.969546|    2.238868|
|         279|  5.9308e+00|  6.8435e-09|  7.7121e-01|  5.0000e-01|  5.0000e-01|  5.0000e-01|   -4.787058|   -4.837049|   -5.450770|   -5.499658|   -5.058650|   -7.969401|    2.238635|
|         280|  5.9301e+00|  6.8435e-09|  7.7121e-01|  5.0000e-01|  5.0000e-01|  5.0000e-01|   -4.787073|   -4.837070|   -5.450592|   -5.499447|   -5.058624|   -7.969263|    2.238403|
|         281|  5.9295e+00|  6.8435e-09|  7.7121e-01|  5.0000e-01|  5.0000e-01|  5.0000e-01|   -4.787088|   -4.837091|   -5.450412|   -5.499233|   -5.058597|   -7.969133|    2.238172|
|         282|  5.9291e+00|  6.8435e-09|  7.7121e-01|  5.0000e-01|  5.0000e-01|  5.0000e-01|   -4.787100|   -4.837110|   -5.450230|   -5.499015|   -5.058569|   -7.969009|    2.237941|
|         283|  5.9284e+00|  6.8435e-09|  7.7121e-01|  5.0000e-01|  5.0000e-01|  5.0000e-01|   -4.787112|   -4.837129|   -5.450048|   -5.498792|   -5.058540|   -7.968892|    2.237712|
|         284|  5.9278e+00|  6.8436e-09|  7.7121e-01|  5.0000e-01|  5.0000e-01|  5.0000e-01|   -4.787122|   -4.837146|   -5.449865|   -5.498566|   -5.058510|   -7.968782|    2.237483|
|         285|  5.9272e+00|  6.8436e-09|  7.7121e-01|  5.0000e-01|  5.0000e-01|  5.0000e-01|   -4.787130|   -4.837162|   -5.449682|   -5.498336|   -5.058478|   -7.968680|    2.237255|
|         286|  5.9264e+00|  6.8436e-09|  7.7121e-01|  5.0000e-01|  5.0000e-01|  5.0000e-01|   -4.787136|   -4.837176|   -5.449497|   -5.498102|   -5.058444|   -7.968584|    2.237027|
|         287|  5.9257e+00|  6.8436e-09|  7.7121e-01|  5.0000e-01|  5.0000e-01|  5.0000e-01|   -4.787136|   -4.837185|   -5.449311|   -5.497863|   -5.058405|   -7.968495|    2.236801|
|         288|  5.9253e+00|  6.8437e-09|  7.7121e-01|  5.0000e-01|  5.0000e-01|  5.0000e-01|   -4.787131|   -4.837187|   -5.449125|   -5.497621|   -5.058360|   -7.968413|    2.236576|
|         289|  5.9251e+00|  6.8437e-09|  7.7121e-01|  5.0000e-01|  5.0000e-01|  5.0000e-01|   -4.787123|   -4.837188|   -5.448938|   -5.497374|   -5.058314|   -7.968338|    2.236351|
|         290|  5.9250e+00|  6.8437e-09|  7.7122e-01|  5.0000e-01|  5.0000e-01|  5.0000e-01|   -4.787113|   -4.837187|   -5.448751|   -5.497124|   -5.058266|   -7.968271|    2.236127|
|         291|  5.9244e+00|  6.8438e-09|  7.7122e-01|  5.0000e-01|  5.0000e-01|  5.0000e-01|   -4.787102|   -4.837184|   -5.448565|   -5.496869|   -5.058216|   -7.968210|    2.235904|
|         292|  5.9240e+00|  6.8438e-09|  7.7122e-01|  5.0000e-01|  5.0000e-01|  5.0000e-01|   -4.787089|   -4.837181|   -5.448379|   -5.496611|   -5.058166|   -7.968156|    2.235682|
|         293|  5.9237e+00|  6.8438e-09|  7.7122e-01|  5.0000e-01|  5.0000e-01|  5.0000e-01|   -4.787076|   -4.837176|   -5.448192|   -5.496351|   -5.058115|   -7.968109|    2.235461|
|         294|  5.9234e+00|  6.8439e-09|  7.7122e-01|  5.0000e-01|  5.0000e-01|  5.0000e-01|   -4.787061|   -4.837170|   -5.448004|   -5.496088|   -5.058062|   -7.968070|    2.235241|
|         295|  5.9231e+00|  6.8439e-09|  7.7122e-01|  5.0000e-01|  5.0000e-01|  5.0000e-01|   -4.787045|   -4.837164|   -5.447818|   -5.495822|   -5.058009|   -7.968037|    2.235022|
|         296|  5.9228e+00|  6.8439e-09|  7.7122e-01|  5.0000e-01|  5.0000e-01|  5.0000e-01|   -4.787028|   -4.837157|   -5.447631|   -5.495552|   -5.057955|   -7.968011|    2.234804|
|         297|  5.9226e+00|  6.8439e-09|  7.7122e-01|  5.0000e-01|  5.0000e-01|  5.0000e-01|   -4.787010|   -4.837149|   -5.447444|   -5.495279|   -5.057901|   -7.967992|    2.234586|
|         298|  5.9224e+00|  6.8440e-09|  7.7122e-01|  5.0000e-01|  5.0000e-01|  5.0000e-01|   -4.786991|   -4.837140|   -5.447258|   -5.495004|   -5.057845|   -7.967979|    2.234370|
|         299|  5.9220e+00|  6.8440e-09|  7.7122e-01|  5.0000e-01|  5.0000e-01|  5.0000e-01|   -4.786971|   -4.837130|   -5.447073|   -5.494725|   -5.057789|   -7.967974|    2.234154|
|         300|  5.9216e+00|  6.8441e-09|  7.7122e-01|  5.0000e-01|  5.0000e-01|  5.0000e-01|   -4.786950|   -4.837120|   -5.446887|   -5.494444|   -5.057732|   -7.967975|    2.233939|
+-----------------------------------------------------------------------+
|        File Writing Summary       |              Filename             |
+-----------------------------------------------------------------------+
|SU2 binary restart                 |restart_flow.dat                   |
|Paraview                           |flow.vtu                           |
|Paraview surface                   |surface_flow.vtu                   |
+-----------------------------------------------------------------------+
+-------------------------------------------------------------------------------------------------------------------------------------------------------------------------------------+
|  Inner_Iter|   Time(sec)|      Min DT|      Max DT|     Min CFL|     Max CFL|     Avg CFL|    rms[Rho]|   rms[RhoU]|   rms[RhoV]|   rms[RhoW]|   rms[RhoE]|     rms[nu]|          CD|
+-------------------------------------------------------------------------------------------------------------------------------------------------------------------------------------+
|         301|  6.0006e+00|  6.8441e-09|  7.7122e-01|  5.0000e-01|  5.0000e-01|  5.0000e-01|   -4.786928|   -4.837109|   -5.446701|   -5.494159|   -5.057675|   -7.967983|    2.233726|
|         302|  6.0030e+00|  6.8441e-09|  7.7122e-01|  5.0000e-01|  5.0000e-01|  5.0000e-01|   -4.786904|   -4.837097|   -5.446514|   -5.493873|   -5.057616|   -7.967997|    2.233513|
|         303|  6.0037e+00|  6.8442e-09|  7.7122e-01|  5.0000e-01|  5.0000e-01|  5.0000e-01|   -4.786880|   -4.837084|   -5.446328|   -5.493582|   -5.057557|   -7.968018|    2.233301|
|         304|  6.0046e+00|  6.8442e-09|  7.7122e-01|  5.0000e-01|  5.0000e-01|  5.0000e-01|   -4.786856|   -4.837072|   -5.446143|   -5.493289|   -5.057499|   -7.968045|    2.233090|
|         305|  6.0045e+00|  6.8442e-09|  7.7122e-01|  5.0000e-01|  5.0000e-01|  5.0000e-01|   -4.786832|   -4.837061|   -5.445959|   -5.492994|   -5.057441|   -7.968079|    2.232880|
|         306|  6.0042e+00|  6.8443e-09|  7.7122e-01|  5.0000e-01|  5.0000e-01|  5.0000e-01|   -4.786807|   -4.837048|   -5.445773|   -5.492696|   -5.057382|   -7.968119|    2.232671|
|         307|  6.0039e+00|  6.8443e-09|  7.7122e-01|  5.0000e-01|  5.0000e-01|  5.0000e-01|   -4.786780|   -4.837033|   -5.445588|   -5.492394|   -5.057321|   -7.968166|    2.232463|
|         308|  6.0035e+00|  6.8444e-09|  7.7122e-01|  5.0000e-01|  5.0000e-01|  5.0000e-01|   -4.786752|   -4.837018|   -5.445403|   -5.492091|   -5.057261|   -7.968218|    2.232256|
|         309|  6.0028e+00|  6.8444e-09|  7.7122e-01|  5.0000e-01|  5.0000e-01|  5.0000e-01|   -4.786723|   -4.837003|   -5.445217|   -5.491783|   -5.057199|   -7.968277|    2.232050|
|         310|  6.0022e+00|  6.8444e-09|  7.7122e-01|  5.0000e-01|  5.0000e-01|  5.0000e-01|   -4.786694|   -4.836988|   -5.445031|   -5.491472|   -5.057138|   -7.968341|    2.231845|
|         311|  6.0017e+00|  6.8445e-09|  7.7122e-01|  5.0000e-01|  5.0000e-01|  5.0000e-01|   -4.786664|   -4.836971|   -5.444843|   -5.491156|   -5.057075|   -7.968411|    2.231641|
|         312|  6.0015e+00|  6.8445e-09|  7.7122e-01|  5.0000e-01|  5.0000e-01|  5.0000e-01|   -4.786634|   -4.836954|   -5.444656|   -5.490838|   -5.057012|   -7.968487|    2.231438|
|         313|  6.0010e+00|  6.8446e-09|  7.7122e-01|  5.0000e-01|  5.0000e-01|  5.0000e-01|   -4.786603|   -4.836938|   -5.444468|   -5.490516|   -5.056950|   -7.968568|    2.231236|
|         314|  6.0004e+00|  6.8446e-09|  7.7122e-01|  5.0000e-01|  5.0000e-01|  5.0000e-01|   -4.786573|   -4.836922|   -5.444283|   -5.490190|   -5.056888|   -7.968655|    2.231035|
|         315|  5.9998e+00|  6.8447e-09|  7.7122e-01|  5.0000e-01|  5.0000e-01|  5.0000e-01|   -4.786544|   -4.836906|   -5.444099|   -5.489863|   -5.056828|   -7.968747|    2.230834|
|         316|  5.9991e+00|  6.8447e-09|  7.7122e-01|  5.0000e-01|  5.0000e-01|  5.0000e-01|   -4.786514|   -4.836890|   -5.443915|   -5.489532|   -5.056767|   -7.968845|    2.230635|
|         317|  5.9987e+00|  6.8448e-09|  7.7122e-01|  5.0000e-01|  5.0000e-01|  5.0000e-01|   -4.786479|   -4.836869|   -5.443729|   -5.489195|   -5.056701|   -7.968947|    2.230437|
|         318|  5.9980e+00|  6.8448e-09|  7.7122e-01|  5.0000e-01|  5.0000e-01|  5.0000e-01|   -4.786442|   -4.836846|   -5.443542|   -5.488854|   -5.056634|   -7.969054|    2.230240|
|         319|  5.9973e+00|  6.8448e-09|  7.7122e-01|  5.0000e-01|  5.0000e-01|  5.0000e-01|   -4.786405|   -4.836824|   -5.443352|   -5.488509|   -5.056567|   -7.969166|    2.230044|
|         320|  5.9965e+00|  6.8449e-09|  7.7122e-01|  5.0000e-01|  5.0000e-01|  5.0000e-01|   -4.786367|   -4.836801|   -5.443161|   -5.488161|   -5.056498|   -7.969283|    2.229849|
|         321|  5.9959e+00|  6.8449e-09|  7.7122e-01|  5.0000e-01|  5.0000e-01|  5.0000e-01|   -4.786327|   -4.836775|   -5.442969|   -5.487809|   -5.056429|   -7.969404|    2.229655|
|         322|  5.9954e+00|  6.8450e-09|  7.7122e-01|  5.0000e-01|  5.0000e-01|  5.0000e-01|   -4.786288|   -4.836751|   -5.442778|   -5.487454|   -5.056360|   -7.969529|    2.229462|
|         323|  5.9946e+00|  6.8450e-09|  7.7122e-01|  5.0000e-01|  5.0000e-01|  5.0000e-01|   -4.786249|   -4.836727|   -5.442589|   -5.487096|   -5.056293|   -7.969658|    2.229270|
|         324|  5.9937e+00|  6.8451e-09|  7.7122e-01|  5.0000e-01|  5.0000e-01|  5.0000e-01|   -4.786211|   -4.836703|   -5.442399|   -5.486734|   -5.056226|   -7.969791|    2.229078|
|         325|  5.9929e+00|  6.8451e-09|  7.7122e-01|  5.0000e-01|  5.0000e-01|  5.0000e-01|   -4.786173|   -4.836681|   -5.442209|   -5.486368|   -5.056160|   -7.969928|    2.228888|
|         326|  5.9924e+00|  6.8452e-09|  7.7122e-01|  5.0000e-01|  5.0000e-01|  5.0000e-01|   -4.786137|   -4.836659|   -5.442019|   -5.485999|   -5.056096|   -7.970068|    2.228699|
|         327|  5.9919e+00|  6.8452e-09|  7.7122e-01|  5.0000e-01|  5.0000e-01|  5.0000e-01|   -4.786101|   -4.836638|   -5.441829|   -5.485625|   -5.056033|   -7.970212|    2.228512|
|         328|  5.9914e+00|  6.8453e-09|  7.7122e-01|  5.0000e-01|  5.0000e-01|  5.0000e-01|   -4.786066|   -4.836618|   -5.441638|   -5.485246|   -5.055971|   -7.970358|    2.228325|
|         329|  5.9908e+00|  6.8453e-09|  7.7122e-01|  5.0000e-01|  5.0000e-01|  5.0000e-01|   -4.786031|   -4.836599|   -5.441448|   -5.484863|   -5.055910|   -7.970508|    2.228139|
|         330|  5.9901e+00|  6.8454e-09|  7.7122e-01|  5.0000e-01|  5.0000e-01|  5.0000e-01|   -4.785996|   -4.836581|   -5.441257|   -5.484476|   -5.055849|   -7.970660|    2.227954|
|         331|  5.9893e+00|  6.8454e-09|  7.7122e-01|  5.0000e-01|  5.0000e-01|  5.0000e-01|   -4.785962|   -4.836563|   -5.441066|   -5.484084|   -5.055790|   -7.970815|    2.227770|
|         332|  5.9886e+00|  6.8455e-09|  7.7122e-01|  5.0000e-01|  5.0000e-01|  5.0000e-01|   -4.785927|   -4.836545|   -5.440876|   -5.483687|   -5.055730|   -7.970971|    2.227587|
|         333|  5.9878e+00|  6.8455e-09|  7.7122e-01|  5.0000e-01|  5.0000e-01|  5.0000e-01|   -4.785893|   -4.836527|   -5.440686|   -5.483285|   -5.055671|   -7.971130|    2.227406|
|         334|  5.9870e+00|  6.8456e-09|  7.7122e-01|  5.0000e-01|  5.0000e-01|  5.0000e-01|   -4.785860|   -4.836510|   -5.440496|   -5.482878|   -5.055614|   -7.971290|    2.227225|
|         335|  5.9867e+00|  6.8456e-09|  7.7122e-01|  5.0000e-01|  5.0000e-01|  5.0000e-01|   -4.785826|   -4.836492|   -5.440306|   -5.482467|   -5.055556|   -7.971452|    2.227045|
|         336|  5.9858e+00|  6.8457e-09|  7.7122e-01|  5.0000e-01|  5.0000e-01|  5.0000e-01|   -4.785793|   -4.836475|   -5.440115|   -5.482049|   -5.055499|   -7.971615|    2.226867|
|         337|  5.9851e+00|  6.8457e-09|  7.7122e-01|  5.0000e-01|  5.0000e-01|  5.0000e-01|   -4.785760|   -4.836460|   -5.439924|   -5.481627|   -5.055444|   -7.971779|    2.226689|
|         338|  5.9845e+00|  6.8458e-09|  7.7122e-01|  5.0000e-01|  5.0000e-01|  5.0000e-01|   -4.785729|   -4.836445|   -5.439733|   -5.481199|   -5.055389|   -7.971944|    2.226513|
|         339|  5.9839e+00|  6.8458e-09|  7.7122e-01|  5.0000e-01|  5.0000e-01|  5.0000e-01|   -4.785697|   -4.836431|   -5.439541|   -5.480765|   -5.055336|   -7.972109|    2.226338|
|         340|  5.9834e+00|  6.8459e-09|  7.7122e-01|  5.0000e-01|  5.0000e-01|  5.0000e-01|   -4.785665|   -4.836418|   -5.439349|   -5.480327|   -5.055282|   -7.972275|    2.226164|
|         341|  5.9826e+00|  6.8459e-09|  7.7122e-01|  5.0000e-01|  5.0000e-01|  5.0000e-01|   -4.785635|   -4.836406|   -5.439159|   -5.479885|   -5.055231|   -7.972440|    2.225990|
|         342|  5.9821e+00|  6.8460e-09|  7.7122e-01|  5.0000e-01|  5.0000e-01|  5.0000e-01|   -4.785605|   -4.836395|   -5.438971|   -5.479439|   -5.055181|   -7.972605|    2.225818|
|         343|  5.9817e+00|  6.8461e-09|  7.7122e-01|  5.0000e-01|  5.0000e-01|  5.0000e-01|   -4.785576|   -4.836384|   -5.438781|   -5.478989|   -5.055132|   -7.972770|    2.225647|
|         344|  5.9811e+00|  6.8461e-09|  7.7122e-01|  5.0000e-01|  5.0000e-01|  5.0000e-01|   -4.785548|   -4.836374|   -5.438591|   -5.478533|   -5.055084|   -7.972934|    2.225477|
|         345|  5.9801e+00|  6.8462e-09|  7.7122e-01|  5.0000e-01|  5.0000e-01|  5.0000e-01|   -4.785520|   -4.836365|   -5.438402|   -5.478072|   -5.055037|   -7.973096|    2.225309|
|         346|  5.9794e+00|  6.8462e-09|  7.7122e-01|  5.0000e-01|  5.0000e-01|  5.0000e-01|   -4.785492|   -4.836357|   -5.438213|   -5.477607|   -5.054991|   -7.973258|    2.225141|
|         347|  5.9787e+00|  6.8463e-09|  7.7122e-01|  5.0000e-01|  5.0000e-01|  5.0000e-01|   -4.785463|   -4.836350|   -5.438023|   -5.477136|   -5.054945|   -7.973417|    2.224974|
|         348|  5.9781e+00|  6.8463e-09|  7.7122e-01|  5.0000e-01|  5.0000e-01|  5.0000e-01|   -4.785436|   -4.836343|   -5.437833|   -5.476660|   -5.054900|   -7.973575|    2.224809|
|         349|  5.9775e+00|  6.8464e-09|  7.7122e-01|  5.0000e-01|  5.0000e-01|  5.0000e-01|   -4.785408|   -4.836337|   -5.437643|   -5.476179|   -5.054857|   -7.973731|    2.224644|
[...]
|       10451|  6.0766e+00|  5.7057e-09|  7.7123e-01|  5.0000e-01|  5.0000e-01|  5.0000e-01|   -4.640100|   -4.711486|   -5.297189|   -5.103906|   -4.911098|   -7.363441|    2.262047|
|       10452|  6.0765e+00|  5.7057e-09|  7.7123e-01|  5.0000e-01|  5.0000e-01|  5.0000e-01|   -4.640236|   -4.711672|   -5.297274|   -5.103902|   -4.911229|   -7.363470|    2.262391|
|       10453|  6.0765e+00|  5.7057e-09|  7.7123e-01|  5.0000e-01|  5.0000e-01|  5.0000e-01|   -4.640372|   -4.711858|   -5.297358|   -5.103897|   -4.911360|   -7.363506|    2.262734|
|       10454|  6.0765e+00|  5.7057e-09|  7.7123e-01|  5.0000e-01|  5.0000e-01|  5.0000e-01|   -4.640508|   -4.712046|   -5.297440|   -5.103890|   -4.911491|   -7.363550|    2.263076|
|       10455|  6.0764e+00|  5.7057e-09|  7.7123e-01|  5.0000e-01|  5.0000e-01|  5.0000e-01|   -4.640644|   -4.712236|   -5.297521|   -5.103881|   -4.911623|   -7.363601|    2.263419|
|       10456|  6.0764e+00|  5.7057e-09|  7.7123e-01|  5.0000e-01|  5.0000e-01|  5.0000e-01|   -4.640782|   -4.712426|   -5.297603|   -5.103872|   -4.911756|   -7.363659|    2.263761|
|       10457|  6.0764e+00|  5.7057e-09|  7.7123e-01|  5.0000e-01|  5.0000e-01|  5.0000e-01|   -4.640919|   -4.712619|   -5.297683|   -5.103862|   -4.911891|   -7.363726|    2.264102|
|       10458|  6.0764e+00|  5.7057e-09|  7.7123e-01|  5.0000e-01|  5.0000e-01|  5.0000e-01|   -4.641057|   -4.712812|   -5.297764|   -5.103850|   -4.912025|   -7.363799|    2.264444|
|       10459|  6.0763e+00|  5.7057e-09|  7.7123e-01|  5.0000e-01|  5.0000e-01|  5.0000e-01|   -4.641196|   -4.713006|   -5.297844|   -5.103837|   -4.912161|   -7.363880|    2.264785|
|       10460|  6.0763e+00|  5.7057e-09|  7.7123e-01|  5.0000e-01|  5.0000e-01|  5.0000e-01|   -4.641334|   -4.713202|   -5.297923|   -5.103823|   -4.912297|   -7.363968|    2.265125|
|       10461|  6.0762e+00|  5.7057e-09|  7.7123e-01|  5.0000e-01|  5.0000e-01|  5.0000e-01|   -4.641473|   -4.713399|   -5.298001|   -5.103807|   -4.912433|   -7.364064|    2.265466|
|       10462|  6.0762e+00|  5.7057e-09|  7.7123e-01|  5.0000e-01|  5.0000e-01|  5.0000e-01|   -4.641611|   -4.713596|   -5.298080|   -5.103790|   -4.912570|   -7.364168|    2.265806|
|       10463|  6.0762e+00|  5.7057e-09|  7.7123e-01|  5.0000e-01|  5.0000e-01|  5.0000e-01|   -4.641750|   -4.713794|   -5.298159|   -5.103771|   -4.912707|   -7.364279|    2.266145|
|       10464|  6.0761e+00|  5.7057e-09|  7.7123e-01|  5.0000e-01|  5.0000e-01|  5.0000e-01|   -4.641888|   -4.713992|   -5.298237|   -5.103750|   -4.912845|   -7.364398|    2.266485|
|       10465|  6.0761e+00|  5.7057e-09|  7.7123e-01|  5.0000e-01|  5.0000e-01|  5.0000e-01|   -4.642027|   -4.714191|   -5.298316|   -5.103728|   -4.912983|   -7.364524|    2.266824|
|       10466|  6.0761e+00|  5.7057e-09|  7.7123e-01|  5.0000e-01|  5.0000e-01|  5.0000e-01|   -4.642167|   -4.714391|   -5.298395|   -5.103706|   -4.913123|   -7.364657|    2.267162|
|       10467|  6.0761e+00|  5.7057e-09|  7.7123e-01|  5.0000e-01|  5.0000e-01|  5.0000e-01|   -4.642308|   -4.714594|   -5.298475|   -5.103684|   -4.913265|   -7.364798|    2.267500|
|       10468|  6.0760e+00|  5.7057e-09|  7.7123e-01|  5.0000e-01|  5.0000e-01|  5.0000e-01|   -4.642451|   -4.714798|   -5.298555|   -5.103662|   -4.913409|   -7.364947|    2.267838|
|       10469|  6.0760e+00|  5.7057e-09|  7.7123e-01|  5.0000e-01|  5.0000e-01|  5.0000e-01|   -4.642594|   -4.715003|   -5.298635|   -5.103639|   -4.913553|   -7.365103|    2.268175|
|       10470|  6.0760e+00|  5.7057e-09|  7.7123e-01|  5.0000e-01|  5.0000e-01|  5.0000e-01|   -4.642737|   -4.715209|   -5.298716|   -5.103614|   -4.913698|   -7.365266|    2.268512|
|       10471|  6.0759e+00|  5.7057e-09|  7.7123e-01|  5.0000e-01|  5.0000e-01|  5.0000e-01|   -4.642880|   -4.715414|   -5.298796|   -5.103588|   -4.913843|   -7.365437|    2.268849|
|       10472|  6.0759e+00|  5.7057e-09|  7.7123e-01|  5.0000e-01|  5.0000e-01|  5.0000e-01|   -4.643022|   -4.715620|   -5.298875|   -5.103560|   -4.913988|   -7.365616|    2.269185|
|       10473|  6.0759e+00|  5.7058e-09|  7.7123e-01|  5.0000e-01|  5.0000e-01|  5.0000e-01|   -4.643164|   -4.715826|   -5.298954|   -5.103531|   -4.914133|   -7.365798|    2.269520|
|       10474|  6.0758e+00|  5.7058e-09|  7.7123e-01|  5.0000e-01|  5.0000e-01|  5.0000e-01|   -4.643306|   -4.716033|   -5.299033|   -5.103500|   -4.914279|   -7.365982|    2.269856|
|       10475|  6.0758e+00|  5.7058e-09|  7.7123e-01|  5.0000e-01|  5.0000e-01|  5.0000e-01|   -4.643448|   -4.716239|   -5.299112|   -5.103467|   -4.914424|   -7.366174|    2.270190|
|       10476|  6.0758e+00|  5.7058e-09|  7.7123e-01|  5.0000e-01|  5.0000e-01|  5.0000e-01|   -4.643591|   -4.716447|   -5.299192|   -5.103433|   -4.914571|   -7.366374|    2.270524|
|       10477|  6.0757e+00|  5.7058e-09|  7.7123e-01|  5.0000e-01|  5.0000e-01|  5.0000e-01|   -4.643733|   -4.716655|   -5.299272|   -5.103398|   -4.914718|   -7.366582|    2.270858|
|       10478|  6.0757e+00|  5.7058e-09|  7.7123e-01|  5.0000e-01|  5.0000e-01|  5.0000e-01|   -4.643876|   -4.716864|   -5.299352|   -5.103361|   -4.914865|   -7.366799|    2.271192|
|       10479|  6.0756e+00|  5.7058e-09|  7.7123e-01|  5.0000e-01|  5.0000e-01|  5.0000e-01|   -4.644019|   -4.717073|   -5.299432|   -5.103324|   -4.915013|   -7.367023|    2.271524|
|       10480|  6.0756e+00|  5.7058e-09|  7.7123e-01|  5.0000e-01|  5.0000e-01|  5.0000e-01|   -4.644162|   -4.717283|   -5.299513|   -5.103286|   -4.915162|   -7.367254|    2.271857|
|       10481|  6.0756e+00|  5.7058e-09|  7.7123e-01|  5.0000e-01|  5.0000e-01|  5.0000e-01|   -4.644304|   -4.717493|   -5.299593|   -5.103246|   -4.915311|   -7.367494|    2.272189|
|       10482|  6.0755e+00|  5.7058e-09|  7.7123e-01|  5.0000e-01|  5.0000e-01|  5.0000e-01|   -4.644446|   -4.717702|   -5.299674|   -5.103205|   -4.915459|   -7.367741|    2.272520|
|       10483|  6.0755e+00|  5.7058e-09|  7.7123e-01|  5.0000e-01|  5.0000e-01|  5.0000e-01|   -4.644588|   -4.717913|   -5.299754|   -5.103163|   -4.915607|   -7.367995|    2.272851|
|       10484|  6.0755e+00|  5.7058e-09|  7.7123e-01|  5.0000e-01|  5.0000e-01|  5.0000e-01|   -4.644730|   -4.718125|   -5.299835|   -5.103121|   -4.915757|   -7.368257|    2.273181|
|       10485|  6.0754e+00|  5.7058e-09|  7.7123e-01|  5.0000e-01|  5.0000e-01|  5.0000e-01|   -4.644872|   -4.718337|   -5.299916|   -5.103078|   -4.915907|   -7.368527|    2.273511|
|       10486|  6.0754e+00|  5.7058e-09|  7.7123e-01|  5.0000e-01|  5.0000e-01|  5.0000e-01|   -4.645014|   -4.718552|   -5.299997|   -5.103033|   -4.916058|   -7.368804|    2.273840|
|       10487|  6.0753e+00|  5.7058e-09|  7.7123e-01|  5.0000e-01|  5.0000e-01|  5.0000e-01|   -4.645155|   -4.718766|   -5.300077|   -5.102988|   -4.916209|   -7.369088|    2.274169|
|       10488|  6.0753e+00|  5.7058e-09|  7.7124e-01|  5.0000e-01|  5.0000e-01|  5.0000e-01|   -4.645296|   -4.718981|   -5.300158|   -5.102941|   -4.916360|   -7.369379|    2.274497|
|       10489|  6.0753e+00|  5.7058e-09|  7.7124e-01|  5.0000e-01|  5.0000e-01|  5.0000e-01|   -4.645436|   -4.719197|   -5.300239|   -5.102893|   -4.916511|   -7.369677|    2.274824|
|       10490|  6.0752e+00|  5.7058e-09|  7.7124e-01|  5.0000e-01|  5.0000e-01|  5.0000e-01|   -4.645575|   -4.719413|   -5.300319|   -5.102844|   -4.916662|   -7.369982|    2.275151|
|       10491|  6.0752e+00|  5.7058e-09|  7.7124e-01|  5.0000e-01|  5.0000e-01|  5.0000e-01|   -4.645714|   -4.719629|   -5.300399|   -5.102793|   -4.916813|   -7.370294|    2.275478|
|       10492|  6.0751e+00|  5.7058e-09|  7.7124e-01|  5.0000e-01|  5.0000e-01|  5.0000e-01|   -4.645852|   -4.719846|   -5.300479|   -5.102741|   -4.916965|   -7.370614|    2.275804|
|       10493|  6.0751e+00|  5.7058e-09|  7.7124e-01|  5.0000e-01|  5.0000e-01|  5.0000e-01|   -4.645989|   -4.720063|   -5.300561|   -5.102688|   -4.917116|   -7.370940|    2.276129|
|       10494|  6.0751e+00|  5.7058e-09|  7.7124e-01|  5.0000e-01|  5.0000e-01|  5.0000e-01|   -4.646126|   -4.720280|   -5.300643|   -5.102634|   -4.917267|   -7.371272|    2.276454|
|       10495|  6.0750e+00|  5.7058e-09|  7.7124e-01|  5.0000e-01|  5.0000e-01|  5.0000e-01|   -4.646262|   -4.720497|   -5.300725|   -5.102579|   -4.917419|   -7.371612|    2.276778|
|       10496|  6.0750e+00|  5.7058e-09|  7.7124e-01|  5.0000e-01|  5.0000e-01|  5.0000e-01|   -4.646397|   -4.720714|   -5.300807|   -5.102522|   -4.917570|   -7.371958|    2.277101|
|       10497|  6.0750e+00|  5.7058e-09|  7.7124e-01|  5.0000e-01|  5.0000e-01|  5.0000e-01|   -4.646530|   -4.720931|   -5.300889|   -5.102463|   -4.917720|   -7.372310|    2.277424|
|       10498|  6.0749e+00|  5.7059e-09|  7.7124e-01|  5.0000e-01|  5.0000e-01|  5.0000e-01|   -4.646663|   -4.721148|   -5.300972|   -5.102404|   -4.917870|   -7.372669|    2.277747|
|       10499|  6.0749e+00|  5.7059e-09|  7.7124e-01|  5.0000e-01|  5.0000e-01|  5.0000e-01|   -4.646795|   -4.721365|   -5.301055|   -5.102344|   -4.918021|   -7.373035|    2.278068|
|       10500|  6.0749e+00|  5.7059e-09|  7.7124e-01|  5.0000e-01|  5.0000e-01|  5.0000e-01|   -4.646926|   -4.721582|   -5.301138|   -5.102284|   -4.918171|   -7.373406|    2.278389|
+-----------------------------------------------------------------------+
|        File Writing Summary       |              Filename             |
+-----------------------------------------------------------------------+
|SU2 binary restart                 |restart_flow.dat                   |
|Paraview                           |flow.vtu                           |
|Paraview surface                   |surface_flow.vtu                   |
+-----------------------------------------------------------------------+
+-------------------------------------------------------------------------------------------------------------------------------------------------------------------------------------+
|  Inner_Iter|   Time(sec)|      Min DT|      Max DT|     Min CFL|     Max CFL|     Avg CFL|    rms[Rho]|   rms[RhoU]|   rms[RhoV]|   rms[RhoW]|   rms[RhoE]|     rms[nu]|          CD|
+-------------------------------------------------------------------------------------------------------------------------------------------------------------------------------------+
|       10501|  6.0772e+00|  5.7059e-09|  7.7124e-01|  5.0000e-01|  5.0000e-01|  5.0000e-01|   -4.647056|   -4.721799|   -5.301222|   -5.102222|   -4.918321|   -7.373784|    2.278710|
|       10502|  6.0772e+00|  5.7059e-09|  7.7124e-01|  5.0000e-01|  5.0000e-01|  5.0000e-01|   -4.647186|   -4.722016|   -5.301307|   -5.102160|   -4.918471|   -7.374168|    2.279030|
|       10503|  6.0772e+00|  5.7059e-09|  7.7124e-01|  5.0000e-01|  5.0000e-01|  5.0000e-01|   -4.647315|   -4.722234|   -5.301392|   -5.102096|   -4.918621|   -7.374559|    2.279349|
|       10504|  6.0772e+00|  5.7059e-09|  7.7124e-01|  5.0000e-01|  5.0000e-01|  5.0000e-01|   -4.647443|   -4.722451|   -5.301478|   -5.102032|   -4.918772|   -7.374955|    2.279668|
|       10505|  6.0772e+00|  5.7059e-09|  7.7124e-01|  5.0000e-01|  5.0000e-01|  5.0000e-01|   -4.647571|   -4.722668|   -5.301564|   -5.101967|   -4.918922|   -7.375357|    2.279986|
|       10506|  6.0772e+00|  5.7059e-09|  7.7124e-01|  5.0000e-01|  5.0000e-01|  5.0000e-01|   -4.647698|   -4.722886|   -5.301650|   -5.101901|   -4.919073|   -7.375766|    2.280303|
|       10507|  6.0771e+00|  5.7059e-09|  7.7124e-01|  5.0000e-01|  5.0000e-01|  5.0000e-01|   -4.647824|   -4.723104|   -5.301736|   -5.101834|   -4.919223|   -7.376180|    2.280620|
|       10508|  6.0771e+00|  5.7059e-09|  7.7124e-01|  5.0000e-01|  5.0000e-01|  5.0000e-01|   -4.647949|   -4.723321|   -5.301822|   -5.101766|   -4.919374|   -7.376600|    2.280936|
|       10509|  6.0771e+00|  5.7059e-09|  7.7124e-01|  5.0000e-01|  5.0000e-01|  5.0000e-01|   -4.648074|   -4.723539|   -5.301909|   -5.101699|   -4.919524|   -7.377026|    2.281251|
|       10510|  6.0771e+00|  5.7059e-09|  7.7124e-01|  5.0000e-01|  5.0000e-01|  5.0000e-01|   -4.648198|   -4.723756|   -5.301995|   -5.101630|   -4.919674|   -7.377457|    2.281566|
|       10511|  6.0770e+00|  5.7059e-09|  7.7124e-01|  5.0000e-01|  5.0000e-01|  5.0000e-01|   -4.648320|   -4.723973|   -5.302081|   -5.101560|   -4.919824|   -7.377894|    2.281880|
|       10512|  6.0770e+00|  5.7059e-09|  7.7124e-01|  5.0000e-01|  5.0000e-01|  5.0000e-01|   -4.648441|   -4.724189|   -5.302166|   -5.101489|   -4.919973|   -7.378337|    2.282194|
|       10513|  6.0769e+00|  5.7060e-09|  7.7124e-01|  5.0000e-01|  5.0000e-01|  5.0000e-01|   -4.648561|   -4.724405|   -5.302252|   -5.101418|   -4.920122|   -7.378785|    2.282507|
|       10514|  6.0769e+00|  5.7060e-09|  7.7124e-01|  5.0000e-01|  5.0000e-01|  5.0000e-01|   -4.648681|   -4.724621|   -5.302338|   -5.101347|   -4.920272|   -7.379238|    2.282819|
|       10515|  6.0769e+00|  5.7060e-09|  7.7124e-01|  5.0000e-01|  5.0000e-01|  5.0000e-01|   -4.648800|   -4.724836|   -5.302426|   -5.101275|   -4.920422|   -7.379697|    2.283131|
|       10516|  6.0768e+00|  5.7060e-09|  7.7124e-01|  5.0000e-01|  5.0000e-01|  5.0000e-01|   -4.648919|   -4.725051|   -5.302516|   -5.101202|   -4.920572|   -7.380162|    2.283442|
|       10517|  6.0768e+00|  5.7060e-09|  7.7124e-01|  5.0000e-01|  5.0000e-01|  5.0000e-01|   -4.649037|   -4.725264|   -5.302608|   -5.101127|   -4.920722|   -7.380631|    2.283752|
|       10518|  6.0768e+00|  5.7060e-09|  7.7124e-01|  5.0000e-01|  5.0000e-01|  5.0000e-01|   -4.649154|   -4.725478|   -5.302701|   -5.101052|   -4.920872|   -7.381106|    2.284062|
|       10519|  6.0767e+00|  5.7060e-09|  7.7124e-01|  5.0000e-01|  5.0000e-01|  5.0000e-01|   -4.649273|   -4.725692|   -5.302796|   -5.100977|   -4.921024|   -7.381585|    2.284371|
|       10520|  6.0767e+00|  5.7060e-09|  7.7124e-01|  5.0000e-01|  5.0000e-01|  5.0000e-01|   -4.649391|   -4.725905|   -5.302891|   -5.100902|   -4.921176|   -7.382070|    2.284680|
|       10521|  6.0766e+00|  5.7060e-09|  7.7124e-01|  5.0000e-01|  5.0000e-01|  5.0000e-01|   -4.649507|   -4.726118|   -5.302988|   -5.100826|   -4.921327|   -7.382560|    2.284987|
|       10522|  6.0766e+00|  5.7060e-09|  7.7124e-01|  5.0000e-01|  5.0000e-01|  5.0000e-01|   -4.649623|   -4.726331|   -5.303085|   -5.100750|   -4.921478|   -7.383054|    2.285295|
|       10523|  6.0766e+00|  5.7060e-09|  7.7124e-01|  5.0000e-01|  5.0000e-01|  5.0000e-01|   -4.649738|   -4.726544|   -5.303183|   -5.100673|   -4.921630|   -7.383554|    2.285601|
|       10524|  6.0765e+00|  5.7060e-09|  7.7124e-01|  5.0000e-01|  5.0000e-01|  5.0000e-01|   -4.649855|   -4.726757|   -5.303282|   -5.100597|   -4.921783|   -7.384059|    2.285907|
|       10525|  6.0765e+00|  5.7060e-09|  7.7124e-01|  5.0000e-01|  5.0000e-01|  5.0000e-01|   -4.649972|   -4.726971|   -5.303381|   -5.100523|   -4.921938|   -7.384569|    2.286213|
|       10526|  6.0764e+00|  5.7060e-09|  7.7124e-01|  5.0000e-01|  5.0000e-01|  5.0000e-01|   -4.650089|   -4.727185|   -5.303482|   -5.100449|   -4.922093|   -7.385084|    2.286517|
|       10527|  6.0764e+00|  5.7061e-09|  7.7124e-01|  5.0000e-01|  5.0000e-01|  5.0000e-01|   -4.650205|   -4.727400|   -5.303583|   -5.100375|   -4.922248|   -7.385603|    2.286822|
|       10528|  6.0764e+00|  5.7061e-09|  7.7124e-01|  5.0000e-01|  5.0000e-01|  5.0000e-01|   -4.650321|   -4.727614|   -5.303685|   -5.100301|   -4.922403|   -7.386127|    2.287125|
|       10529|  6.0763e+00|  5.7061e-09|  7.7124e-01|  5.0000e-01|  5.0000e-01|  5.0000e-01|   -4.650437|   -4.727827|   -5.303787|   -5.100227|   -4.922559|   -7.386656|    2.287428|
|       10530|  6.0763e+00|  5.7061e-09|  7.7124e-01|  5.0000e-01|  5.0000e-01|  5.0000e-01|   -4.650552|   -4.728041|   -5.303891|   -5.100152|   -4.922714|   -7.387190|    2.287730|
|       10531|  6.0763e+00|  5.7061e-09|  7.7124e-01|  5.0000e-01|  5.0000e-01|  5.0000e-01|   -4.650668|   -4.728255|   -5.303995|   -5.100079|   -4.922871|   -7.387729|    2.288032|
|       10532|  6.0762e+00|  5.7061e-09|  7.7124e-01|  5.0000e-01|  5.0000e-01|  5.0000e-01|   -4.650783|   -4.728469|   -5.304101|   -5.100006|   -4.923029|   -7.388272|    2.288333|
|       10533|  6.0762e+00|  5.7061e-09|  7.7124e-01|  5.0000e-01|  5.0000e-01|  5.0000e-01|   -4.650899|   -4.728682|   -5.304207|   -5.099932|   -4.923186|   -7.388819|    2.288634|
|       10534|  6.0762e+00|  5.7061e-09|  7.7124e-01|  5.0000e-01|  5.0000e-01|  5.0000e-01|   -4.651014|   -4.728896|   -5.304314|   -5.099858|   -4.923344|   -7.389371|    2.288934|
|       10535|  6.0761e+00|  5.7061e-09|  7.7124e-01|  5.0000e-01|  5.0000e-01|  5.0000e-01|   -4.651130|   -4.729110|   -5.304423|   -5.099784|   -4.923504|   -7.389928|    2.289233|
|       10536|  6.0761e+00|  5.7061e-09|  7.7124e-01|  5.0000e-01|  5.0000e-01|  5.0000e-01|   -4.651245|   -4.729324|   -5.304531|   -5.099711|   -4.923663|   -7.390489|    2.289532|
|       10537|  6.0761e+00|  5.7061e-09|  7.7124e-01|  5.0000e-01|  5.0000e-01|  5.0000e-01|   -4.651361|   -4.729538|   -5.304639|   -5.099639|   -4.923823|   -7.391054|    2.289830|
|       10538|  6.0760e+00|  5.7062e-09|  7.7124e-01|  5.0000e-01|  5.0000e-01|  5.0000e-01|   -4.651476|   -4.729751|   -5.304747|   -5.099565|   -4.923983|   -7.391624|    2.290128|
|       10539|  6.0760e+00|  5.7062e-09|  7.7124e-01|  5.0000e-01|  5.0000e-01|  5.0000e-01|   -4.651590|   -4.729964|   -5.304855|   -5.099491|   -4.924142|   -7.392198|    2.290425|
|       10540|  6.0760e+00|  5.7062e-09|  7.7124e-01|  5.0000e-01|  5.0000e-01|  5.0000e-01|   -4.651704|   -4.730176|   -5.304962|   -5.099417|   -4.924301|   -7.392777|    2.290722|
|       10541|  6.0759e+00|  5.7062e-09|  7.7124e-01|  5.0000e-01|  5.0000e-01|  5.0000e-01|   -4.651816|   -4.730388|   -5.305067|   -5.099342|   -4.924460|   -7.393359|    2.291018|

scontrol show job 1080345
JobId=1080345 JobName=m6_fine
   UserId=anthonyy(3152141) GroupId=anthonyy(3152141) MCS_label=N/A
   Priority=807783 Nice=0 Account=rrg-jphickey QOS=normal
   JobState=TIMEOUT Reason=TimeLimit Dependency=(null)
   Requeue=0 Restarts=0 BatchFlag=1 Reboot=0 ExitCode=0:15
   RunTime=18:00:10 TimeLimit=18:00:00 TimeMin=N/A
   SubmitTime=2026-02-28T03:19:50 EligibleTime=2026-02-28T03:19:50
   AccrueTime=2026-02-28T03:19:50
   StartTime=2026-02-28T03:19:51 EndTime=2026-02-28T21:20:01 Deadline=N/A
   SuspendTime=None SecsPreSuspend=0 LastSchedEval=2026-02-28T03:19:51 Scheduler=Main
   Partition=compute AllocNode:Sid=tri-login02:158899
   ReqNodeList=(null) ExcNodeList=(null)
   NodeList=tri[0428,0436]
   BatchHost=tri0428
   NumNodes=2 NumCPUs=384 NumTasks=128 CPUs/Task=1 ReqB:S:C:T=0:0:*:*
   ReqTRES=cpu=128,mem=1534000M,node=2,billing=128
   AllocTRES=cpu=384,mem=1534000M,node=2,billing=384
   Socks/Node=* NtasksPerN:B:S:C=64:0:*:* CoreSpec=*
   MinCPUsNode=64 MinMemoryNode=767000M MinTmpDiskNode=0
   Features=(null) DelayBoot=00:00:00
   OverSubscribe=NO Contiguous=0 Licenses=(null) Network=(null)
   Command=/scratch/anthonyy/reentry/orion/cases/m6_aoa15/run.sh
   WorkDir=/scratch/anthonyy/reentry/orion/cases/m6_aoa15
   Comment=/opt/slurm/bin/sbatch --export=NONE --get-user-env=L run.sh 
   StdErr=/scratch/anthonyy/reentry/orion/cases/m6_aoa15/orion_1080345.err
   StdIn=/dev/null
   StdOut=/scratch/anthonyy/reentry/orion/cases/m6_aoa15/orion_1080345.out
   TresPerTask=cpu=1
   

sacct -j 1080345
JobID           JobName    Account    Elapsed  MaxVMSize     MaxRSS  SystemCPU    UserCPU ExitCode 
------------ ---------- ---------- ---------- ---------- ---------- ---------- ---------- -------- 
1080345         m6_fine rrg-jphic+   18:00:10                         17:01:32 94-08:49:+      0:0 
1080345.bat+      batch rrg-jphic+   18:00:11          0      9008K  00:00.118  00:00.369     0:15 
1080345.ext+     extern rrg-jphic+   18:00:16          0          0  00:00.001   00:00:00      0:0 
1080345.0       SU2_CFD rrg-jphic+   18:00:07          0  10716780K   17:01:31 94-08:49:+     0:15 

