Nodes:  tri[0827-0828]
Tasks:  128
NPN:    64
Config: /scratch/anthonyy/reentry/orion/config/generated/m6_aoa60.cfg

-------------------------------------------------------------------------
|    ___ _   _ ___                                                      |
|   / __| | | |_  )   Release 7.5.1 "Blackbird"                         |
|   \__ \ |_| |/ /                                                      |
|   |___/\___//___|   Suite (Computational Fluid Dynamics Code)         |
|                                                                       |
-------------------------------------------------------------------------
| SU2 Project Website: https://su2code.github.io                        |
|                                                                       |
| The SU2 Project is maintained by the SU2 Foundation                   |
| (http://su2foundation.org)                                            |
-------------------------------------------------------------------------
| Copyright 2012-2023, SU2 Contributors                                 |
|                                                                       |
| SU2 is free software; you can redistribute it and/or                  |
| modify it under the terms of the GNU Lesser General Public            |
| License as published by the Free Software Foundation; either          |
| version 2.1 of the License, or (at your option) any later version.    |
|                                                                       |
| SU2 is distributed in the hope that it will be useful,                |
| but WITHOUT ANY WARRANTY; without even the implied warranty of        |
| MERCHANTABILITY or FITNESS FOR A PARTICULAR PURPOSE. See the GNU      |
| Lesser General Public License for more details.                       |
|                                                                       |
| You should have received a copy of the GNU Lesser General Public      |
| License along with SU2. If not, see <http://www.gnu.org/licenses/>.   |
-------------------------------------------------------------------------

Parsing config file for zone 0

----------------- Physical Case Definition ( Zone 0 ) -------------------
Compressible RANS equations.
Turbulence model: Spalart-Allmaras-noft2
Hybrid RANS/LES: No Hybrid RANS/LES
Mach number: 6.
Angle of attack (AoA): 60 deg, and angle of sideslip (AoS): 0 deg.
Reynolds number: 6.86229e+08. Reference length 5.
Reading and writing binary SU2 native restart files.
Read flow solution from: restart_flow.dat.
Non-Dimensional simulation (V=1.0, Rho=1.0, T=1.0 at the farfield).
The reference area will be computed using y(2D) or z(3D) projection.
The semi-span will be computed using the max y(3D) value.
The reference length is 0.64607 m.
Reference origin for moment evaluation is (0.25, 0, 0).
Surface(s) where the force coefficients are evaluated: ORION_SURFACE.

Input mesh file name: ../../mesh/fine.su2

--------------- Space Numerical Integration ( Zone 0 ) ------------------
Jameson-Schmidt-Turkel scheme (2nd order in space) for the flow inviscid terms.
JST viscous coefficients (2nd & 4th): 0.5, 0.02.
The method includes a grid stretching correction (p = 0.3).
Scalar upwind solver for the turbulence model.
First order integration in space.
Average of gradients with correction (viscous flow terms).
Average of gradients with correction (viscous turbulence terms).
Gradient for upwind reconstruction: Green-Gauss.
Gradient for viscous and source terms: Green-Gauss.

--------------- Time Numerical Integration  ( Zone 0 ) ------------------
Local time stepping (steady state simulation).
Euler implicit method for the flow equations.
FGMRES is used for solving the linear system.
Using a ILU(0) preconditioning.
Convergence criteria of the linear solver: 1e-06.
Max number of linear iterations: 100.
CFL adaptation. Factor down: 0.5, factor up: 1.1,
                lower limit: 0.05, upper limit: 0.5,
                acceptable linear residual: 0.001.
Courant-Friedrichs-Lewy number:     0.03
Euler implicit time integration for the turbulence model.

------------------ Convergence Criteria  ( Zone 0 ) ---------------------
Maximum number of solver subiterations: 999999.
Begin convergence monitoring at iteration 5.
Residual minimum value: 1e-8.
Cauchy series min. value: 1e-10.
Number of Cauchy elements: 100.
Begin windowed time average at iteration 0.

-------------------- Output Information ( Zone 0 ) ----------------------
File writing frequency: 
+------------------------------------+
|                     File| Frequency|
+------------------------------------+
|                  RESTART|       150|
|                 PARAVIEW|       150|
|         SURFACE_PARAVIEW|       150|
+------------------------------------+
Writing the convergence history file every 1 inner iterations.
Writing the screen convergence history every 1 inner iterations.
The tabular file format is CSV (.csv).
Convergence history file name: history.
Forces breakdown file name: forces_breakdown.dat.
Surface file name: surface_flow.
Volume file name: flow.
Restart file name: restart_flow.

------------- Config File Boundary Information ( Zone 0 ) ---------------
+-----------------------------------------------------------------------+
|                        Marker Type|                        Marker Name|
+-----------------------------------------------------------------------+
|                          Far-field|                           FARFIELD|
+-----------------------------------------------------------------------+
|                     Heat flux wall|                      ORION_SURFACE|
+-----------------------------------------------------------------------+

-------------------- Output Preprocessing ( Zone 0 ) --------------------

WARNING: SURFACE_PRESSURE_DROP can only be computed for at least 2 surfaces (outlet, inlet, ...)

Screen output fields: INNER_ITER, WALL_TIME, RMS_DENSITY, RMS_MOMENTUM-X, RMS_MOMENTUM-Y, RMS_MOMENTUM-Z, RMS_ENERGY, RMS_NU_TILDE, DRAG
History output group(s): ITER, RMS_RES
Convergence field(s): RMS_DENSITY
Warning: No (valid) fields chosen for time convergence monitoring. Time convergence monitoring inactive.
Volume output fields: MACH, PRESSURE, TEMPERATURE, DENSITY, HEAT_FLUX, Y_PLUS, COORDINATES, SOLUTION

------------------- Geometry Preprocessing ( Zone 0 ) -------------------
Three dimensional problem.
62211324 grid points before partitioning.
190879888 volume elements before partitioning.
2 surface markers.
4104 boundary elements in index 0 (Marker = FARFIELD).
1824836 boundary elements in index 1 (Marker = ORION_SURFACE).
Executing the partitioning functions.
Building the graph adjacency structure.
Calling ParMETIS... graph partitioning complete (4959327 edge cuts).
Distributing ParMETIS coloring.
Rebalancing vertices.
Rebalancing volume element connectivity.
Rebalancing markers and surface elements.
66952290 vertices including ghost points. 
197997438 interior elements including halo cells. 
103171259 tetrahedra.
94500655 prisms.
325524 pyramids.
Establishing MPI communication patterns.
Setting point connectivity.
Renumbering points (Reverse Cuthill McKee Ordering).
Recomputing point connectivity.
Setting element connectivity.
Checking the numerical grid orientation.
All volume elements are correctly orientend.
All surface elements are correctly orientend.
Identifying edges and vertices.
Setting the control volume structure.
Volume of the computational grid: 535693.
Searching for the closest normal neighbors to the surfaces.
Storing a mapping from global to local point index.
Compute the surface curvature.
Max K: 132.896. Mean K: 3.9104. Standard deviation K: 7.49569.
Checking for periodicity.
Computing mesh quality statistics for the dual control volumes.
+--------------------------------------------------------------+
|           Mesh Quality Metric|        Minimum|        Maximum|
+--------------------------------------------------------------+
|    Orthogonality Angle (deg.)|        53.0661|             90|
|     CV Face Area Aspect Ratio|        1.01143|        75298.5|
|           CV Sub-Volume Ratio|        1.00029|        45.0258|
+--------------------------------------------------------------+
Finding max control volume width.
Communicating number of neighbors.
Reference area = 11.531 m^2.
Semi-span length = 2.49999 m.
Wetted area = 57.9072 m^2.
Area projection in the x-plane = 19.6343 m^2, y-plane = 11.531 m^2, z-plane = 11.531 m^2.
Max. coordinate in the x-direction = 2.575 m, y-direction = 2.49999 m, z-direction = 2.49999 m.
Min. coordinate in the x-direction = -0.71 m, y-direction = -2.49999 m, z-direction = -2.5 m.
Computing wall distances.

-------------------- Solver Preprocessing ( Zone 0 ) --------------------
Viscous flow: Computing pressure using the ideal gas law
based on the free-stream temperature and a density computed
from the Reynolds number.
Force coefficients computed using free-stream values.

-- Models:
+------------------------------------------------------------------------------+
|          Viscosity Model|        Conductivity Model|              Fluid Model|
+------------------------------------------------------------------------------+
|               SUTHERLAND|          CONSTANT_PRANDTL|             STANDARD_AIR|
+------------------------------------------------------------------------------+
-- Fluid properties:
+------------------------------------------------------------------------------+
|                  Name|    Dim. value|    Ref. value|      Unit|Non-dim. value|
+------------------------------------------------------------------------------+
|        Ref. Viscosity|     1.716e-05|       2455.73|   N.s/m^2|   6.98773e-09|
|      Sutherland Temp.|        273.15|        288.15|         K|      0.947944|
|     Sutherland Const.|         110.4|        288.15|         K|      0.383134|
+------------------------------------------------------------------------------+
|        Prandtl (Lam.)|             -|             -|         -|          0.72|
|       Prandtl (Turb.)|             -|             -|         -|           0.9|
+------------------------------------------------------------------------------+
|          Gas Constant|       287.058|       14467.7|  N.m/kg.K|     0.0198413|
|      Spec. Heat Ratio|             -|             -|         -|           1.4|
+------------------------------------------------------------------------------+
-- Initial and free-stream conditions:
+------------------------------------------------------------------------------+
|                  Name|    Dim. value|    Ref. value|      Unit|Non-dim. value|
+------------------------------------------------------------------------------+
|       Static Pressure|       99485.6|   5.01407e+06|        Pa|     0.0198413|
|               Density|       1.20274|       1.20274|    kg/m^3|             1|
|           Temperature|        288.15|        288.15|         K|             1|
|          Total Energy|   2.29123e+06|   4.16887e+06|   m^2/s^2|      0.549603|
|            Velocity-X|       1020.89|       2041.78|       m/s|           0.5|
|            Velocity-Y|             0|       2041.78|       m/s|             0|
|            Velocity-Z|       1768.24|       2041.78|       m/s|      0.866025|
|    Velocity Magnitude|       2041.78|       2041.78|       m/s|             1|
+------------------------------------------------------------------------------+
|             Viscosity|    1.7893e-05|       2455.73|   N.s/m^2|    7.2862e-09|
|          Conductivity|             -|   3.55289e+07|   W/m^2.K|             -|
|     Turb. Kin. Energy|       15633.3|   4.16887e+06|   m^2/s^2|       0.00375|
|     Spec. Dissipation|   1.05085e+08|       2041.78|       1/s|       51467.1|
+------------------------------------------------------------------------------+
|           Mach Number|             -|             -|         -|             6|
|       Reynolds Number|             -|             -|         -|   6.86229e+08|
+------------------------------------------------------------------------------+
Initialize Jacobian structure (Navier-Stokes). MG level: 0.
Initialize Jacobian structure (SA model).

------------------- Numerics Preprocessing ( Zone 0 ) -------------------

----------------- Integration Preprocessing ( Zone 0 ) ------------------

------------------- Iteration Preprocessing ( Zone 0 ) ------------------
Euler/Navier-Stokes/RANS fluid iteration.

------------------------------ Begin Solver -----------------------------

Simulation Run using the Single-zone Driver
WARNING: SU2 was not compiled for an AVX-capable architecture. Performance could be better,
         see https://su2code.github.io/docs_v7/Build-SU2-Linux-MacOS/#compiler-optimizations
+--------------------------------------------------------------------------------------------------------------------+
|  Inner_Iter|   Time(sec)|    rms[Rho]|   rms[RhoU]|   rms[RhoV]|   rms[RhoW]|   rms[RhoE]|     rms[nu]|          CD|
+--------------------------------------------------------------------------------------------------------------------+
|           0|  7.8344e+00|   -5.771240|   -6.087272|   -6.646140|   -5.811133|   -5.992974|   -7.462922|    0.813522|
|           1|  6.8369e+00|   -5.771345|   -6.087364|   -6.646220|   -5.811248|   -5.993097|   -7.462946|    0.813523|
|           2|  6.4635e+00|   -5.771516|   -6.087515|   -6.646350|   -5.811438|   -5.993298|   -7.462989|    0.813523|
|           3|  6.2745e+00|   -5.771704|   -6.087680|   -6.646491|   -5.811647|   -5.993519|   -7.463036|    0.813524|
|           4|  6.1521e+00|   -5.771910|   -6.087862|   -6.646645|   -5.811877|   -5.993761|   -7.463088|    0.813524|
|           5|  6.1154e+00|   -5.772136|   -6.088061|   -6.646813|   -5.812128|   -5.994026|   -7.463145|    0.813525|
|           6|  6.1193e+00|   -5.772384|   -6.088280|   -6.646995|   -5.812404|   -5.994317|   -7.463207|    0.813526|
|           7|  6.1101e+00|   -5.772656|   -6.088520|   -6.647192|   -5.812707|   -5.994636|   -7.463276|    0.813527|
|           8|  6.0803e+00|   -5.772953|   -6.088783|   -6.647406|   -5.813039|   -5.994984|   -7.463352|    0.813528|
|           9|  6.0492e+00|   -5.773278|   -6.089071|   -6.647637|   -5.813403|   -5.995366|   -7.463435|    0.813529|
|          10|  6.0190e+00|   -5.773634|   -6.089386|   -6.647887|   -5.813802|   -5.995783|   -7.463527|    0.813530|
|          11|  6.0049e+00|   -5.774022|   -6.089731|   -6.648157|   -5.814239|   -5.996239|   -7.463629|    0.813531|
|          12|  6.0369e+00|   -5.774447|   -6.090109|   -6.648447|   -5.814717|   -5.996736|   -7.463740|    0.813533|
|          13|  6.0559e+00|   -5.774911|   -6.090521|   -6.648758|   -5.815240|   -5.997279|   -7.463863|    0.813534|
|          14|  6.0766e+00|   -5.775416|   -6.090972|   -6.649091|   -5.815812|   -5.997871|   -7.463998|    0.813536|
|          15|  6.0889e+00|   -5.775966|   -6.091463|   -6.649447|   -5.816437|   -5.998515|   -7.464146|    0.813538|
|          16|  6.1065e+00|   -5.776565|   -6.091997|   -6.649826|   -5.817118|   -5.999216|   -7.464310|    0.813540|
|          17|  6.1279e+00|   -5.777216|   -6.092579|   -6.650229|   -5.817861|   -5.999976|   -7.464491|    0.813542|
|          18|  6.1419e+00|   -5.777921|   -6.093210|   -6.650655|   -5.818670|   -6.000800|   -7.464690|    0.813545|
|          19|  6.1564e+00|   -5.778684|   -6.093894|   -6.651105|   -5.819549|   -6.001691|   -7.464909|    0.813548|
|          20|  6.1688e+00|   -5.779508|   -6.094633|   -6.651576|   -5.820504|   -6.002652|   -7.465150|    0.813551|
|          21|  6.1775e+00|   -5.780396|   -6.095428|   -6.652069|   -5.821537|   -6.003686|   -7.465416|    0.813554|
|          22|  6.1864e+00|   -5.781349|   -6.096282|   -6.652581|   -5.822654|   -6.004794|   -7.465710|    0.813558|
|          23|  6.2238e+00|   -5.782367|   -6.097195|   -6.653109|   -5.823857|   -6.005977|   -7.466034|    0.813562|
|          24|  6.2559e+00|   -5.783451|   -6.098164|   -6.653652|   -5.825149|   -6.007234|   -7.466391|    0.813567|
|          25|  6.3017e+00|   -5.784599|   -6.099189|   -6.654204|   -5.826531|   -6.008562|   -7.466785|    0.813572|
|          26|  6.3390e+00|   -5.785805|   -6.100262|   -6.654761|   -5.828002|   -6.009954|   -7.467224|    0.813577|
|          27|  6.3718e+00|   -5.787003|   -6.101322|   -6.655313|   -5.829473|   -6.011342|   -7.467672|    0.813582|
|          28|  6.3976e+00|   -5.788178|   -6.102359|   -6.655858|   -5.830929|   -6.012712|   -7.468121|    0.813588|
|          29|  6.4181e+00|   -5.789332|   -6.103372|   -6.656396|   -5.832368|   -6.014064|   -7.468572|    0.813593|
|          30|  6.4407e+00|   -5.790463|   -6.104361|   -6.656927|   -5.833792|   -6.015399|   -7.469025|    0.813598|
|          31|  6.4597e+00|   -5.791572|   -6.105328|   -6.657451|   -5.835200|   -6.016717|   -7.469480|    0.813604|
|          32|  6.4780e+00|   -5.792660|   -6.106271|   -6.657967|   -5.836593|   -6.018018|   -7.469936|    0.813609|
|          33|  6.4963e+00|   -5.793725|   -6.107191|   -6.658475|   -5.837969|   -6.019303|   -7.470393|    0.813615|
|          34|  6.5146e+00|   -5.794770|   -6.108089|   -6.658976|   -5.839331|   -6.020572|   -7.470853|    0.813620|
|          35|  6.5342e+00|   -5.795793|   -6.108966|   -6.659468|   -5.840678|   -6.021825|   -7.471314|    0.813626|
|          36|  6.5489e+00|   -5.796795|   -6.109822|   -6.659951|   -5.842010|   -6.023065|   -7.471776|    0.813631|
|          37|  6.5634e+00|   -5.797776|   -6.110656|   -6.660427|   -5.843328|   -6.024290|   -7.472240|    0.813637|
|          38|  6.5781e+00|   -5.798738|   -6.111471|   -6.660894|   -5.844633|   -6.025502|   -7.472706|    0.813642|
|          39|  6.5898e+00|   -5.799679|   -6.112266|   -6.661352|   -5.845924|   -6.026700|   -7.473173|    0.813648|
|          40|  6.6046e+00|   -5.800601|   -6.113042|   -6.661801|   -5.847202|   -6.027887|   -7.473642|    0.813653|
|          41|  6.6171e+00|   -5.801504|   -6.113800|   -6.662241|   -5.848467|   -6.029062|   -7.474112|    0.813659|
|          42|  6.6347e+00|   -5.802389|   -6.114539|   -6.662671|   -5.849720|   -6.030226|   -7.474584|    0.813665|
|          43|  6.6472e+00|   -5.803255|   -6.115262|   -6.663091|   -5.850961|   -6.031379|   -7.475058|    0.813670|
|          44|  6.6585e+00|   -5.804103|   -6.115967|   -6.663502|   -5.852191|   -6.032522|   -7.475533|    0.813676|
|          45|  6.6683e+00|   -5.804933|   -6.116655|   -6.663902|   -5.853409|   -6.033656|   -7.476009|    0.813682|
|          46|  6.6796e+00|   -5.805747|   -6.117328|   -6.664292|   -5.854616|   -6.034780|   -7.476488|    0.813687|
|          47|  6.6889e+00|   -5.806543|   -6.117984|   -6.664672|   -5.855813|   -6.035896|   -7.476967|    0.813693|
|          48|  6.6972e+00|   -5.807323|   -6.118626|   -6.665040|   -5.856999|   -6.037004|   -7.477448|    0.813699|
|          49|  6.7045e+00|   -5.808087|   -6.119253|   -6.665398|   -5.858175|   -6.038104|   -7.477931|    0.813705|
|          50|  6.7142e+00|   -5.808835|   -6.119865|   -6.665745|   -5.859341|   -6.039197|   -7.478415|    0.813711|
|          51|  6.7205e+00|   -5.809567|   -6.120463|   -6.666081|   -5.860497|   -6.040282|   -7.478901|    0.813717|
|          52|  6.7275e+00|   -5.810284|   -6.121046|   -6.666406|   -5.861644|   -6.041360|   -7.479388|    0.813723|
|          53|  6.7333e+00|   -5.810985|   -6.121616|   -6.666719|   -5.862781|   -6.042431|   -7.479876|    0.813729|
|          54|  6.7388e+00|   -5.811671|   -6.122173|   -6.667021|   -5.863908|   -6.043495|   -7.480366|    0.813735|
|          55|  6.7435e+00|   -5.812342|   -6.122716|   -6.667310|   -5.865026|   -6.044552|   -7.480858|    0.813741|
|          56|  6.7484e+00|   -5.812999|   -6.123246|   -6.667589|   -5.866134|   -6.045603|   -7.481351|    0.813747|
|          57|  6.7543e+00|   -5.813640|   -6.123762|   -6.667855|   -5.867232|   -6.046647|   -7.481845|    0.813753|
|          58|  6.7651e+00|   -5.814266|   -6.124266|   -6.668109|   -5.868321|   -6.047684|   -7.482341|    0.813759|
|          59|  6.7720e+00|   -5.814878|   -6.124756|   -6.668351|   -5.869399|   -6.048715|   -7.482838|    0.813765|
|          60|  6.7752e+00|   -5.815476|   -6.125233|   -6.668580|   -5.870468|   -6.049738|   -7.483337|    0.813771|
|          61|  6.7791e+00|   -5.816059|   -6.125698|   -6.668798|   -5.871527|   -6.050755|   -7.483837|    0.813777|
|          62|  6.7827e+00|   -5.816627|   -6.126150|   -6.669003|   -5.872576|   -6.051764|   -7.484339|    0.813783|
|          63|  6.7875e+00|   -5.817181|   -6.126590|   -6.669196|   -5.873615|   -6.052767|   -7.484842|    0.813789|
|          64|  6.7913e+00|   -5.817721|   -6.127017|   -6.669377|   -5.874643|   -6.053761|   -7.485346|    0.813796|
|          65|  6.7945e+00|   -5.818246|   -6.127431|   -6.669546|   -5.875660|   -6.054749|   -7.485852|    0.813802|
|          66|  6.7972e+00|   -5.818756|   -6.127832|   -6.669702|   -5.876666|   -6.055728|   -7.486359|    0.813808|
|          67|  6.8016e+00|   -5.819248|   -6.128220|   -6.669847|   -5.877658|   -6.056696|   -7.486868|    0.813814|
|          68|  6.8056e+00|   -5.819726|   -6.128594|   -6.669979|   -5.878638|   -6.057656|   -7.487377|    0.813821|
|          69|  6.8087e+00|   -5.820190|   -6.128957|   -6.670099|   -5.879608|   -6.058608|   -7.487889|    0.813827|
|          70|  6.8116e+00|   -5.820638|   -6.129306|   -6.670206|   -5.880565|   -6.059551|   -7.488401|    0.813833|
|          71|  6.8143e+00|   -5.821073|   -6.129643|   -6.670302|   -5.881511|   -6.060485|   -7.488915|    0.813840|
|          72|  6.8181e+00|   -5.821492|   -6.129967|   -6.670386|   -5.882445|   -6.061410|   -7.489430|    0.813846|
|          73|  6.8207e+00|   -5.821898|   -6.130279|   -6.670458|   -5.883366|   -6.062326|   -7.489947|    0.813852|
|          74|  6.8252e+00|   -5.822288|   -6.130579|   -6.670518|   -5.884276|   -6.063232|   -7.490465|    0.813859|
|          75|  6.8286e+00|   -5.822664|   -6.130866|   -6.670567|   -5.885173|   -6.064129|   -7.490984|    0.813865|
|          76|  6.8325e+00|   -5.823025|   -6.131141|   -6.670605|   -5.886057|   -6.065015|   -7.491504|    0.813872|
|          77|  6.8352e+00|   -5.823372|   -6.131403|   -6.670631|   -5.886929|   -6.065892|   -7.492026|    0.813878|
|          78|  6.8379e+00|   -5.823704|   -6.131653|   -6.670646|   -5.887787|   -6.066758|   -7.492549|    0.813885|
|          79|  6.8395e+00|   -5.824021|   -6.131890|   -6.670650|   -5.888633|   -6.067613|   -7.493073|    0.813891|
|          80|  6.8407e+00|   -5.824324|   -6.132116|   -6.670642|   -5.889465|   -6.068458|   -7.493599|    0.813898|
|          81|  6.8424e+00|   -5.824612|   -6.132329|   -6.670624|   -5.890284|   -6.069292|   -7.494126|    0.813904|
|          82|  6.8445e+00|   -5.824884|   -6.132529|   -6.670596|   -5.891089|   -6.070116|   -7.494654|    0.813911|
|          83|  6.8452e+00|   -5.825143|   -6.132717|   -6.670557|   -5.891881|   -6.070927|   -7.495183|    0.813917|
|          84|  6.8454e+00|   -5.825386|   -6.132893|   -6.670507|   -5.892658|   -6.071728|   -7.495713|    0.813924|
|          85|  6.8470e+00|   -5.825615|   -6.133057|   -6.670448|   -5.893422|   -6.072517|   -7.496245|    0.813931|
|          86|  6.8486e+00|   -5.825830|   -6.133210|   -6.670379|   -5.894172|   -6.073295|   -7.496778|    0.813937|
|          87|  6.8518e+00|   -5.826030|   -6.133349|   -6.670300|   -5.894909|   -6.074063|   -7.497312|    0.813944|
|          88|  6.8530e+00|   -5.826217|   -6.133477|   -6.670212|   -5.895632|   -6.074818|   -7.497847|    0.813951|
|          89|  6.8550e+00|   -5.826388|   -6.133593|   -6.670113|   -5.896341|   -6.075562|   -7.498384|    0.813957|
|          90|  6.8560e+00|   -5.826545|   -6.133697|   -6.670006|   -5.897034|   -6.076293|   -7.498922|    0.813964|
|          91|  6.8577e+00|   -5.826687|   -6.133788|   -6.669889|   -5.897713|   -6.077012|   -7.499460|    0.813971|
|          92|  6.8617e+00|   -5.826814|   -6.133868|   -6.669763|   -5.898377|   -6.077719|   -7.500000|    0.813978|
|          93|  6.8657e+00|   -5.826927|   -6.133936|   -6.669628|   -5.899026|   -6.078412|   -7.500541|    0.813985|
|          94|  6.8670e+00|   -5.827025|   -6.133992|   -6.669483|   -5.899659|   -6.079093|   -7.501084|    0.813991|
|          95|  6.8680e+00|   -5.827108|   -6.134036|   -6.669330|   -5.900277|   -6.079761|   -7.501627|    0.813998|
|          96|  6.8692e+00|   -5.827177|   -6.134069|   -6.669168|   -5.900881|   -6.080417|   -7.502171|    0.814005|
|          97|  6.8710e+00|   -5.827232|   -6.134090|   -6.668998|   -5.901468|   -6.081059|   -7.502717|    0.814012|
|          98|  6.8723e+00|   -5.827273|   -6.134100|   -6.668819|   -5.902040|   -6.081688|   -7.503264|    0.814019|
|          99|  6.8728e+00|   -5.827299|   -6.134098|   -6.668631|   -5.902597|   -6.082303|   -7.503811|    0.814026|
|         100|  6.8732e+00|   -5.827311|   -6.134084|   -6.668436|   -5.903138|   -6.082906|   -7.504360|    0.814033|
|         101|  6.8740e+00|   -5.827309|   -6.134059|   -6.668232|   -5.903663|   -6.083494|   -7.504910|    0.814039|
|         102|  6.8758e+00|   -5.827294|   -6.134023|   -6.668021|   -5.904173|   -6.084069|   -7.505461|    0.814046|
|         103|  6.8766e+00|   -5.827264|   -6.133975|   -6.667802|   -5.904667|   -6.084631|   -7.506013|    0.814053|
|         104|  6.8778e+00|   -5.827221|   -6.133916|   -6.667576|   -5.905145|   -6.085179|   -7.506566|    0.814060|
|         105|  6.8783e+00|   -5.827164|   -6.133846|   -6.667342|   -5.905607|   -6.085713|   -7.507119|    0.814067|
|         106|  6.8789e+00|   -5.827095|   -6.133766|   -6.667101|   -5.906053|   -6.086233|   -7.507674|    0.814074|
|         107|  6.8815e+00|   -5.827012|   -6.133674|   -6.666853|   -5.906484|   -6.086739|   -7.508230|    0.814081|
|         108|  6.8831e+00|   -5.826916|   -6.133572|   -6.666598|   -5.906898|   -6.087231|   -7.508787|    0.814088|
|         109|  6.8876e+00|   -5.826807|   -6.133460|   -6.666337|   -5.907297|   -6.087710|   -7.509345|    0.814095|
|         110|  6.8913e+00|   -5.826685|   -6.133337|   -6.666069|   -5.907680|   -6.088175|   -7.509904|    0.814102|
|         111|  6.8935e+00|   -5.826552|   -6.133203|   -6.665794|   -5.908048|   -6.088625|   -7.510464|    0.814109|
|         112|  6.8953e+00|   -5.826405|   -6.133060|   -6.665513|   -5.908399|   -6.089062|   -7.511025|    0.814116|
|         113|  6.8964e+00|   -5.826247|   -6.132907|   -6.665226|   -5.908735|   -6.089485|   -7.511586|    0.814124|
|         114|  6.8974e+00|   -5.826077|   -6.132745|   -6.664934|   -5.909056|   -6.089894|   -7.512149|    0.814131|
|         115|  6.8982e+00|   -5.825895|   -6.132572|   -6.664635|   -5.909361|   -6.090289|   -7.512712|    0.814138|
|         116|  6.8996e+00|   -5.825702|   -6.132390|   -6.664331|   -5.909650|   -6.090670|   -7.513277|    0.814145|
|         117|  6.9000e+00|   -5.825497|   -6.132200|   -6.664021|   -5.909924|   -6.091037|   -7.513842|    0.814152|
|         118|  6.9009e+00|   -5.825282|   -6.132000|   -6.663707|   -5.910183|   -6.091391|   -7.514408|    0.814159|
|         119|  6.9017e+00|   -5.825055|   -6.131790|   -6.663386|   -5.910427|   -6.091731|   -7.514975|    0.814166|
|         120|  6.9025e+00|   -5.824817|   -6.131573|   -6.663061|   -5.910656|   -6.092057|   -7.515543|    0.814174|
|         121|  6.9045e+00|   -5.824570|   -6.131347|   -6.662731|   -5.910869|   -6.092370|   -7.516112|    0.814181|
|         122|  6.9051e+00|   -5.824311|   -6.131112|   -6.662395|   -5.911068|   -6.092669|   -7.516681|    0.814188|
|         123|  6.9050e+00|   -5.824043|   -6.130869|   -6.662055|   -5.911252|   -6.092955|   -7.517251|    0.814195|
|         124|  6.9058e+00|   -5.823765|   -6.130619|   -6.661710|   -5.911422|   -6.093227|   -7.517823|    0.814202|
|         125|  6.9068e+00|   -5.823477|   -6.130360|   -6.661361|   -5.911576|   -6.093486|   -7.518394|    0.814210|
|         126|  6.9085e+00|   -5.823179|   -6.130094|   -6.661007|   -5.911717|   -6.093732|   -7.518967|    0.814217|
|         127|  6.9098e+00|   -5.822872|   -6.129821|   -6.660648|   -5.911843|   -6.093965|   -7.519540|    0.814224|
|         128|  6.9104e+00|   -5.822556|   -6.129540|   -6.660286|   -5.911955|   -6.094185|   -7.520115|    0.814231|
|         129|  6.9120e+00|   -5.822232|   -6.129253|   -6.659919|   -5.912052|   -6.094392|   -7.520689|    0.814239|
|         130|  6.9133e+00|   -5.821898|   -6.128958|   -6.659549|   -5.912136|   -6.094587|   -7.521265|    0.814246|
|         131|  6.9145e+00|   -5.821556|   -6.128657|   -6.659175|   -5.912207|   -6.094769|   -7.521841|    0.814253|
|         132|  6.9152e+00|   -5.821206|   -6.128349|   -6.658798|   -5.912263|   -6.094938|   -7.522419|    0.814261|
|         133|  6.9151e+00|   -5.820847|   -6.128035|   -6.658417|   -5.912307|   -6.095094|   -7.522996|    0.814268|
|         134|  6.9163e+00|   -5.820481|   -6.127715|   -6.658032|   -5.912336|   -6.095239|   -7.523575|    0.814275|
|         135|  6.9178e+00|   -5.820107|   -6.127389|   -6.657645|   -5.912353|   -6.095371|   -7.524154|    0.814283|
|         136|  6.9184e+00|   -5.819726|   -6.127056|   -6.657254|   -5.912357|   -6.095490|   -7.524734|    0.814290|
|         137|  6.9198e+00|   -5.819337|   -6.126719|   -6.656860|   -5.912347|   -6.095598|   -7.525314|    0.814297|
|         138|  6.9201e+00|   -5.818941|   -6.126375|   -6.656463|   -5.912325|   -6.095694|   -7.525895|    0.814305|
|         139|  6.9196e+00|   -5.818538|   -6.126027|   -6.656063|   -5.912290|   -6.095777|   -7.526477|    0.814312|
|         140|  6.9203e+00|   -5.818128|   -6.125673|   -6.655661|   -5.912242|   -6.095849|   -7.527059|    0.814319|
|         141|  6.9204e+00|   -5.817711|   -6.125314|   -6.655256|   -5.912182|   -6.095909|   -7.527642|    0.814327|
|         142|  6.9210e+00|   -5.817288|   -6.124950|   -6.654848|   -5.912110|   -6.095958|   -7.528225|    0.814334|
|         143|  6.9214e+00|   -5.816859|   -6.124582|   -6.654439|   -5.912026|   -6.095995|   -7.528809|    0.814342|
|         144|  6.9229e+00|   -5.816425|   -6.124209|   -6.654027|   -5.911930|   -6.096021|   -7.529394|    0.814349|
|         145|  6.9232e+00|   -5.815984|   -6.123832|   -6.653613|   -5.911822|   -6.096035|   -7.529979|    0.814356|
|         146|  6.9242e+00|   -5.815538|   -6.123450|   -6.653197|   -5.911703|   -6.096039|   -7.530565|    0.814364|
|         147|  6.9244e+00|   -5.815086|   -6.123065|   -6.652779|   -5.911572|   -6.096031|   -7.531151|    0.814371|
|         148|  6.9252e+00|   -5.814629|   -6.122675|   -6.652360|   -5.911430|   -6.096013|   -7.531738|    0.814379|
|         149|  6.9258e+00|   -5.814167|   -6.122282|   -6.651938|   -5.911277|   -6.095983|   -7.532325|    0.814386|
|         150|  6.9261e+00|   -5.813700|   -6.121885|   -6.651516|   -5.911113|   -6.095944|   -7.532913|    0.814394|
+-----------------------------------------------------------------------+
|        File Writing Summary       |              Filename             |
+-----------------------------------------------------------------------+
|SU2 binary restart                 |restart_flow.dat                   |
|Paraview                           |flow.vtu                           |
|Paraview surface                   |surface_flow.vtu                   |
+-----------------------------------------------------------------------+
+--------------------------------------------------------------------------------------------------------------------+
|  Inner_Iter|   Time(sec)|    rms[Rho]|   rms[RhoU]|   rms[RhoV]|   rms[RhoW]|   rms[RhoE]|     rms[nu]|          CD|
+--------------------------------------------------------------------------------------------------------------------+
|         151|  7.0692e+00|   -5.813229|   -6.121485|   -6.651092|   -5.910939|   -6.095893|   -7.533501|    0.814401|
|         152|  7.0697e+00|   -5.812754|   -6.121082|   -6.650667|   -5.910754|   -6.095833|   -7.534089|    0.814409|
|         153|  7.0706e+00|   -5.812274|   -6.120677|   -6.650241|   -5.910559|   -6.095763|   -7.534678|    0.814416|
|         154|  7.0714e+00|   -5.811790|   -6.120268|   -6.649813|   -5.910353|   -6.095682|   -7.535268|    0.814424|
|         155|  7.0713e+00|   -5.811303|   -6.119856|   -6.649385|   -5.910138|   -6.095592|   -7.535858|    0.814431|
|         156|  7.0704e+00|   -5.810812|   -6.119442|   -6.648956|   -5.909913|   -6.095491|   -7.536448|    0.814439|
|         157|  7.0724e+00|   -5.810317|   -6.119026|   -6.648526|   -5.909678|   -6.095382|   -7.537039|    0.814446|
|         158|  7.0729e+00|   -5.809819|   -6.118607|   -6.648095|   -5.909434|   -6.095263|   -7.537630|    0.814454|
|         159|  7.0737e+00|   -5.809319|   -6.118186|   -6.647663|   -5.909181|   -6.095134|   -7.538222|    0.814461|
|         160|  7.0735e+00|   -5.808815|   -6.117764|   -6.647232|   -5.908919|   -6.094997|   -7.538814|    0.814469|
|         161|  7.0734e+00|   -5.808308|   -6.117339|   -6.646800|   -5.908648|   -6.094850|   -7.539406|    0.814476|
|         162|  7.0744e+00|   -5.807799|   -6.116913|   -6.646367|   -5.908368|   -6.094694|   -7.539999|    0.814484|
|         163|  7.0740e+00|   -5.807287|   -6.116484|   -6.645934|   -5.908079|   -6.094530|   -7.540592|    0.814491|
|         164|  7.0727e+00|   -5.806773|   -6.116055|   -6.645501|   -5.907782|   -6.094357|   -7.541186|    0.814499|
|         165|  7.0720e+00|   -5.806256|   -6.115624|   -6.645068|   -5.907477|   -6.094175|   -7.541779|    0.814506|
|         166|  7.0725e+00|   -5.805738|   -6.115192|   -6.644635|   -5.907164|   -6.093986|   -7.542373|    0.814514|
|         167|  7.0721e+00|   -5.805218|   -6.114759|   -6.644202|   -5.906843|   -6.093788|   -7.542968|    0.814521|
|         168|  7.0735e+00|   -5.804696|   -6.114324|   -6.643770|   -5.906514|   -6.093582|   -7.543562|    0.814529|
|         169|  7.0728e+00|   -5.804172|   -6.113890|   -6.643339|   -5.906178|   -6.093368|   -7.544157|    0.814537|
|         170|  7.0735e+00|   -5.803647|   -6.113454|   -6.642908|   -5.905835|   -6.093147|   -7.544752|    0.814544|
|         171|  7.0732e+00|   -5.803121|   -6.113017|   -6.642476|   -5.905485|   -6.092917|   -7.545348|    0.814552|
|         172|  7.0731e+00|   -5.802593|   -6.112580|   -6.642045|   -5.905127|   -6.092680|   -7.545943|    0.814559|
|         173|  7.0725e+00|   -5.802065|   -6.112142|   -6.641615|   -5.904763|   -6.092436|   -7.546539|    0.814567|
|         174|  7.0732e+00|   -5.801535|   -6.111704|   -6.641184|   -5.904392|   -6.092184|   -7.547136|    0.814575|
|         175|  7.0736e+00|   -5.801005|   -6.111266|   -6.640755|   -5.904015|   -6.091926|   -7.547732|    0.814582|
|         176|  7.0730e+00|   -5.800474|   -6.110828|   -6.640327|   -5.903631|   -6.091661|   -7.548328|    0.814590|
|         177|  7.0736e+00|   -5.799943|   -6.110390|   -6.639899|   -5.903242|   -6.091389|   -7.548925|    0.814597|
|         178|  7.0731e+00|   -5.799412|   -6.109953|   -6.639473|   -5.902847|   -6.091111|   -7.549522|    0.814605|
|         179|  7.0728e+00|   -5.798881|   -6.109516|   -6.639047|   -5.902446|   -6.090827|   -7.550119|    0.814613|
|         180|  7.0719e+00|   -5.798350|   -6.109080|   -6.638623|   -5.902041|   -6.090537|   -7.550717|    0.814620|
|         181|  7.0716e+00|   -5.797819|   -6.108645|   -6.638200|   -5.901629|   -6.090240|   -7.551314|    0.814628|
|         182|  7.0708e+00|   -5.797288|   -6.108210|   -6.637778|   -5.901213|   -6.089938|   -7.551912|    0.814636|
|         183|  7.0703e+00|   -5.796758|   -6.107776|   -6.637358|   -5.900792|   -6.089631|   -7.552510|    0.814643|
|         184|  7.0692e+00|   -5.796228|   -6.107342|   -6.636939|   -5.900367|   -6.089317|   -7.553107|    0.814651|
|         185|  7.0675e+00|   -5.795700|   -6.106910|   -6.636522|   -5.899937|   -6.088999|   -7.553705|    0.814659|
|         186|  7.0667e+00|   -5.795172|   -6.106479|   -6.636107|   -5.899502|   -6.088675|   -7.554303|    0.814666|
|         187|  7.0657e+00|   -5.794645|   -6.106050|   -6.635693|   -5.899064|   -6.088347|   -7.554902|    0.814674|
|         188|  7.0651e+00|   -5.794119|   -6.105621|   -6.635282|   -5.898622|   -6.088013|   -7.555500|    0.814681|
|         189|  7.0645e+00|   -5.793595|   -6.105195|   -6.634872|   -5.898176|   -6.087675|   -7.556098|    0.814689|
|         190|  7.0645e+00|   -5.793071|   -6.104769|   -6.634464|   -5.897726|   -6.087333|   -7.556697|    0.814697|
|         191|  7.0670e+00|   -5.792550|   -6.104346|   -6.634059|   -5.897273|   -6.086986|   -7.557295|    0.814704|
|         192|  7.0684e+00|   -5.792030|   -6.103924|   -6.633656|   -5.896817|   -6.086635|   -7.557893|    0.814712|
|         193|  7.0686e+00|   -5.791512|   -6.103504|   -6.633254|   -5.896358|   -6.086279|   -7.558492|    0.814720|
|         194|  7.0682e+00|   -5.790995|   -6.103086|   -6.632856|   -5.895896|   -6.085920|   -7.559090|    0.814727|
|         195|  7.0683e+00|   -5.790481|   -6.102670|   -6.632459|   -5.895431|   -6.085558|   -7.559689|    0.814735|
|         196|  7.0674e+00|   -5.789969|   -6.102256|   -6.632065|   -5.894964|   -6.085191|   -7.560287|    0.814743|
|         197|  7.0665e+00|   -5.789459|   -6.101845|   -6.631673|   -5.894495|   -6.084822|   -7.560886|    0.814750|
|         198|  7.0661e+00|   -5.788952|   -6.101436|   -6.631284|   -5.894023|   -6.084449|   -7.561484|    0.814758|
|         199|  7.0655e+00|   -5.788447|   -6.101029|   -6.630898|   -5.893550|   -6.084073|   -7.562083|    0.814766|
|         200|  7.0644e+00|   -5.787944|   -6.100626|   -6.630514|   -5.893074|   -6.083694|   -7.562681|    0.814773|
|         201|  7.0636e+00|   -5.787445|   -6.100224|   -6.630133|   -5.892597|   -6.083312|   -7.563280|    0.814781|
|         202|  7.0628e+00|   -5.786948|   -6.099826|   -6.629754|   -5.892119|   -6.082928|   -7.563878|    0.814789|
|         203|  7.0621e+00|   -5.786454|   -6.099431|   -6.629378|   -5.891639|   -6.082541|   -7.564476|    0.814796|
|         204|  7.0615e+00|   -5.785963|   -6.099038|   -6.629004|   -5.891158|   -6.082152|   -7.565074|    0.814804|
|         205|  7.0607e+00|   -5.785475|   -6.098648|   -6.628634|   -5.890676|   -6.081760|   -7.565672|    0.814812|
|         206|  7.0595e+00|   -5.784990|   -6.098261|   -6.628266|   -5.890192|   -6.081367|   -7.566270|    0.814819|
|         207|  7.0585e+00|   -5.784509|   -6.097878|   -6.627901|   -5.889708|   -6.080971|   -7.566868|    0.814827|
|         208|  7.0582e+00|   -5.784030|   -6.097497|   -6.627540|   -5.889223|   -6.080573|   -7.567465|    0.814834|
|         209|  7.0577e+00|   -5.783555|   -6.097120|   -6.627181|   -5.888738|   -6.080174|   -7.568063|    0.814842|
|         210|  7.0575e+00|   -5.783085|   -6.096747|   -6.626825|   -5.888254|   -6.079774|   -7.568660|    0.814850|
|         211|  7.0568e+00|   -5.782619|   -6.096379|   -6.626472|   -5.887772|   -6.079375|   -7.569258|    0.814857|
|         212|  7.0558e+00|   -5.782158|   -6.096014|   -6.626122|   -5.887290|   -6.078975|   -7.569855|    0.814865|
|         213|  7.0550e+00|   -5.781700|   -6.095653|   -6.625775|   -5.886808|   -6.078573|   -7.570452|    0.814873|
|         214|  7.0542e+00|   -5.781245|   -6.095296|   -6.625432|   -5.886326|   -6.078170|   -7.571049|    0.814880|
|         215|  7.0536e+00|   -5.780795|   -6.094943|   -6.625092|   -5.885844|   -6.077767|   -7.571645|    0.814888|
|         216|  7.0531e+00|   -5.780349|   -6.094593|   -6.624755|   -5.885362|   -6.077362|   -7.572242|    0.814895|
|         217|  7.0521e+00|   -5.779906|   -6.094247|   -6.624421|   -5.884881|   -6.076957|   -7.572838|    0.814903|
|         218|  7.0510e+00|   -5.779468|   -6.093905|   -6.624091|   -5.884401|   -6.076551|   -7.573434|    0.814911|
|         219|  7.0505e+00|   -5.779034|   -6.093567|   -6.623764|   -5.883921|   -6.076145|   -7.574030|    0.814918|
|         220|  7.0500e+00|   -5.778603|   -6.093233|   -6.623440|   -5.883442|   -6.075738|   -7.574626|    0.814926|
|         221|  7.0497e+00|   -5.778177|   -6.092903|   -6.623121|   -5.882964|   -6.075330|   -7.575222|    0.814934|
|         222|  7.0488e+00|   -5.777755|   -6.092577|   -6.622805|   -5.882486|   -6.074923|   -7.575818|    0.814941|
|         223|  7.0480e+00|   -5.777338|   -6.092255|   -6.622493|   -5.882010|   -6.074515|   -7.576413|    0.814949|
|         224|  7.0473e+00|   -5.776925|   -6.091937|   -6.622185|   -5.881535|   -6.074107|   -7.577009|    0.814956|
|         225|  7.0472e+00|   -5.776516|   -6.091623|   -6.621880|   -5.881062|   -6.073699|   -7.577604|    0.814964|
|         226|  7.0473e+00|   -5.776112|   -6.091314|   -6.621580|   -5.880589|   -6.073292|   -7.578199|    0.814971|
|         227|  7.0472e+00|   -5.775713|   -6.091009|   -6.621284|   -5.880118|   -6.072885|   -7.578794|    0.814979|
|         228|  7.0466e+00|   -5.775318|   -6.090708|   -6.620991|   -5.879649|   -6.072478|   -7.579389|    0.814987|
|         229|  7.0462e+00|   -5.774928|   -6.090411|   -6.620702|   -5.879182|   -6.072071|   -7.579983|    0.814994|
|         230|  7.0459e+00|   -5.774542|   -6.090119|   -6.620417|   -5.878716|   -6.071665|   -7.580577|    0.815002|
|         231|  7.0460e+00|   -5.774161|   -6.089831|   -6.620137|   -5.878252|   -6.071260|   -7.581171|    0.815009|
|         232|  7.0458e+00|   -5.773785|   -6.089548|   -6.619859|   -5.877790|   -6.070856|   -7.581765|    0.815017|
|         233|  7.0454e+00|   -5.773413|   -6.089269|   -6.619586|   -5.877330|   -6.070451|   -7.582358|    0.815024|
|         234|  7.0441e+00|   -5.773047|   -6.088994|   -6.619317|   -5.876871|   -6.070048|   -7.582952|    0.815032|
|         235|  7.0438e+00|   -5.772685|   -6.088724|   -6.619052|   -5.876415|   -6.069646|   -7.583545|    0.815039|
|         236|  7.0434e+00|   -5.772328|   -6.088458|   -6.618791|   -5.875961|   -6.069245|   -7.584137|    0.815047|
|         237|  7.0431e+00|   -5.771976|   -6.088197|   -6.618535|   -5.875509|   -6.068844|   -7.584730|    0.815054|
|         238|  7.0424e+00|   -5.771628|   -6.087941|   -6.618282|   -5.875060|   -6.068445|   -7.585322|    0.815062|
|         239|  7.0415e+00|   -5.771286|   -6.087689|   -6.618034|   -5.874613|   -6.068048|   -7.585914|    0.815069|
|         240|  7.0409e+00|   -5.770949|   -6.087442|   -6.617790|   -5.874168|   -6.067651|   -7.586506|    0.815077|
|         241|  7.0405e+00|   -5.770617|   -6.087199|   -6.617550|   -5.873727|   -6.067256|   -7.587097|    0.815084|
|         242|  7.0405e+00|   -5.770290|   -6.086962|   -6.617315|   -5.873287|   -6.066862|   -7.587688|    0.815092|
|         243|  7.0416e+00|   -5.769969|   -6.086729|   -6.617084|   -5.872851|   -6.066470|   -7.588279|    0.815099|
|         244|  7.0420e+00|   -5.769652|   -6.086500|   -6.616857|   -5.872417|   -6.066080|   -7.588870|    0.815107|
|         245|  7.0424e+00|   -5.769341|   -6.086277|   -6.616635|   -5.871986|   -6.065691|   -7.589460|    0.815114|
|         246|  7.0418e+00|   -5.769034|   -6.086056|   -6.616415|   -5.871557|   -6.065303|   -7.590050|    0.815121|
|         247|  7.0414e+00|   -5.768733|   -6.085841|   -6.616200|   -5.871132|   -6.064917|   -7.590640|    0.815129|
|         248|  7.0410e+00|   -5.768437|   -6.085630|   -6.615989|   -5.870709|   -6.064533|   -7.591230|    0.815136|
|         249|  7.0404e+00|   -5.768147|   -6.085425|   -6.615783|   -5.870290|   -6.064151|   -7.591820|    0.815144|
|         250|  7.0396e+00|   -5.767862|   -6.085225|   -6.615581|   -5.869874|   -6.063771|   -7.592410|    0.815151|
|         251|  7.0392e+00|   -5.767582|   -6.085030|   -6.615385|   -5.869461|   -6.063393|   -7.592999|    0.815159|
|         252|  7.0392e+00|   -5.767308|   -6.084840|   -6.615192|   -5.869052|   -6.063018|   -7.593589|    0.815166|
|         253|  7.0387e+00|   -5.767040|   -6.084655|   -6.615005|   -5.868646|   -6.062645|   -7.594178|    0.815173|
|         254|  7.0377e+00|   -5.766778|   -6.084475|   -6.614823|   -5.868244|   -6.062275|   -7.594767|    0.815181|
|         255|  7.0374e+00|   -5.766521|   -6.084301|   -6.614646|   -5.867845|   -6.061907|   -7.595356|    0.815188|
|         256|  7.0372e+00|   -5.766269|   -6.084131|   -6.614473|   -5.867450|   -6.061542|   -7.595944|    0.815195|
|         257|  7.0369e+00|   -5.766024|   -6.083967|   -6.614305|   -5.867059|   -6.061179|   -7.596533|    0.815203|
|         258|  7.0360e+00|   -5.765784|   -6.083808|   -6.614143|   -5.866671|   -6.060819|   -7.597121|    0.815210|
|         259|  7.0358e+00|   -5.765549|   -6.083655|   -6.613985|   -5.866287|   -6.060462|   -7.597709|    0.815217|
|         260|  7.0356e+00|   -5.765321|   -6.083506|   -6.613832|   -5.865907|   -6.060107|   -7.598297|    0.815225|
|         261|  7.0352e+00|   -5.765098|   -6.083363|   -6.613684|   -5.865531|   -6.059756|   -7.598884|    0.815232|
|         262|  7.0350e+00|   -5.764881|   -6.083225|   -6.613541|   -5.865159|   -6.059407|   -7.599472|    0.815239|
|         263|  7.0343e+00|   -5.764670|   -6.083092|   -6.613403|   -5.864790|   -6.059061|   -7.600059|    0.815247|
|         264|  7.0336e+00|   -5.764464|   -6.082965|   -6.613270|   -5.864426|   -6.058718|   -7.600646|    0.815254|
|         265|  7.0337e+00|   -5.764265|   -6.082842|   -6.613142|   -5.864066|   -6.058377|   -7.601232|    0.815261|
|         266|  7.0334e+00|   -5.764071|   -6.082725|   -6.613019|   -5.863709|   -6.058040|   -7.601819|    0.815268|
|         267|  7.0328e+00|   -5.763883|   -6.082614|   -6.612901|   -5.863357|   -6.057706|   -7.602405|    0.815276|
|         268|  7.0320e+00|   -5.763701|   -6.082508|   -6.612789|   -5.863010|   -6.057376|   -7.602991|    0.815283|
|         269|  7.0312e+00|   -5.763525|   -6.082407|   -6.612681|   -5.862666|   -6.057048|   -7.603576|    0.815290|
|         270|  7.0305e+00|   -5.763355|   -6.082311|   -6.612579|   -5.862327|   -6.056724|   -7.604162|    0.815297|
|         271|  7.0302e+00|   -5.763190|   -6.082220|   -6.612482|   -5.861992|   -6.056403|   -7.604747|    0.815305|
|         272|  7.0302e+00|   -5.763032|   -6.082135|   -6.612390|   -5.861661|   -6.056084|   -7.605332|    0.815312|
|         273|  7.0303e+00|   -5.762878|   -6.082054|   -6.612303|   -5.861333|   -6.055768|   -7.605916|    0.815319|
|         274|  7.0300e+00|   -5.762731|   -6.081978|   -6.612222|   -5.861011|   -6.055456|   -7.606500|    0.815326|
|         275|  7.0296e+00|   -5.762590|   -6.081908|   -6.612147|   -5.860693|   -6.055147|   -7.607085|    0.815333|
|         276|  7.0292e+00|   -5.762455|   -6.081843|   -6.612076|   -5.860379|   -6.054842|   -7.607668|    0.815340|
|         277|  7.0290e+00|   -5.762326|   -6.081784|   -6.612011|   -5.860070|   -6.054541|   -7.608252|    0.815348|
|         278|  7.0289e+00|   -5.762203|   -6.081731|   -6.611952|   -5.859766|   -6.054243|   -7.608835|    0.815355|
|         279|  7.0285e+00|   -5.762086|   -6.081682|   -6.611897|   -5.859466|   -6.053949|   -7.609418|    0.815362|
|         280|  7.0283e+00|   -5.761976|   -6.081640|   -6.611847|   -5.859171|   -6.053658|   -7.610001|    0.815369|
|         281|  7.0282e+00|   -5.761871|   -6.081603|   -6.611803|   -5.858881|   -6.053372|   -7.610584|    0.815376|
|         282|  7.0279e+00|   -5.761773|   -6.081571|   -6.611764|   -5.858596|   -6.053089|   -7.611166|    0.815383|
|         283|  7.0276e+00|   -5.761681|   -6.081545|   -6.611730|   -5.858315|   -6.052809|   -7.611748|    0.815390|
|         284|  7.0272e+00|   -5.761595|   -6.081525|   -6.611701|   -5.858040|   -6.052534|   -7.612330|    0.815397|
|         285|  7.0269e+00|   -5.761515|   -6.081510|   -6.611678|   -5.857769|   -6.052263|   -7.612911|    0.815404|
|         286|  7.0266e+00|   -5.761441|   -6.081500|   -6.611660|   -5.857503|   -6.051995|   -7.613493|    0.815411|
|         287|  7.0268e+00|   -5.761373|   -6.081496|   -6.611647|   -5.857242|   -6.051731|   -7.614074|    0.815418|
|         288|  7.0266e+00|   -5.761312|   -6.081498|   -6.611639|   -5.856986|   -6.051472|   -7.614655|    0.815426|
|         289|  7.0263e+00|   -5.761257|   -6.081505|   -6.611636|   -5.856734|   -6.051216|   -7.615235|    0.815433|
|         290|  7.0258e+00|   -5.761207|   -6.081518|   -6.611639|   -5.856488|   -6.050964|   -7.615816|    0.815440|
|         291|  7.0257e+00|   -5.761164|   -6.081536|   -6.611647|   -5.856247|   -6.050717|   -7.616396|    0.815447|
|         292|  7.0255e+00|   -5.761128|   -6.081559|   -6.611659|   -5.856011|   -6.050473|   -7.616976|    0.815454|
|         293|  7.0257e+00|   -5.761097|   -6.081589|   -6.611678|   -5.855780|   -6.050233|   -7.617555|    0.815461|
|         294|  7.0255e+00|   -5.761073|   -6.081623|   -6.611701|   -5.855554|   -6.049998|   -7.618135|    0.815467|
|         295|  7.0254e+00|   -5.761055|   -6.081664|   -6.611729|   -5.855333|   -6.049767|   -7.618714|    0.815474|
|         296|  7.0249e+00|   -5.761043|   -6.081710|   -6.611763|   -5.855117|   -6.049540|   -7.619293|    0.815481|
|         297|  7.0249e+00|   -5.761037|   -6.081761|   -6.611801|   -5.854907|   -6.049317|   -7.619872|    0.815488|
|         298|  7.0246e+00|   -5.761038|   -6.081817|   -6.611845|   -5.854702|   -6.049098|   -7.620450|    0.815495|
|         299|  7.0240e+00|   -5.761045|   -6.081879|   -6.611894|   -5.854502|   -6.048884|   -7.621028|    0.815502|
|         300|  7.0239e+00|   -5.761056|   -6.081946|   -6.611948|   -5.854305|   -6.048672|   -7.621606|    0.815509|
+-----------------------------------------------------------------------+
|        File Writing Summary       |              Filename             |
+-----------------------------------------------------------------------+
|SU2 binary restart                 |restart_flow.dat                   |
|Paraview                           |flow.vtu                           |
|Paraview surface                   |surface_flow.vtu                   |
+-----------------------------------------------------------------------+
+--------------------------------------------------------------------------------------------------------------------+
|  Inner_Iter|   Time(sec)|    rms[Rho]|   rms[RhoU]|   rms[RhoV]|   rms[RhoW]|   rms[RhoE]|     rms[nu]|          CD|
+--------------------------------------------------------------------------------------------------------------------+
|         301|  7.0970e+00|   -5.761074|   -6.082019|   -6.612007|   -5.854114|   -6.048464|   -7.622184|    0.815516|
|         302|  7.0971e+00|   -5.761098|   -6.082097|   -6.612072|   -5.853928|   -6.048262|   -7.622762|    0.815523|
|         303|  7.0970e+00|   -5.761129|   -6.082180|   -6.612141|   -5.853748|   -6.048063|   -7.623339|    0.815530|
|         304|  7.0963e+00|   -5.761166|   -6.082269|   -6.612216|   -5.853573|   -6.047870|   -7.623916|    0.815536|
|         305|  7.0951e+00|   -5.761210|   -6.082364|   -6.612296|   -5.853404|   -6.047680|   -7.624493|    0.815543|
|         306|  7.0941e+00|   -5.761260|   -6.082464|   -6.612381|   -5.853240|   -6.047496|   -7.625070|    0.815550|
|         307|  7.0936e+00|   -5.761316|   -6.082569|   -6.612472|   -5.853082|   -6.047315|   -7.625647|    0.815557|
|         308|  7.0923e+00|   -5.761378|   -6.082680|   -6.612567|   -5.852930|   -6.047140|   -7.626223|    0.815564|
|         309|  7.0917e+00|   -5.761447|   -6.082797|   -6.612668|   -5.852782|   -6.046969|   -7.626799|    0.815570|
|         310|  7.0908e+00|   -5.761522|   -6.082918|   -6.612774|   -5.852641|   -6.046803|   -7.627375|    0.815577|
|         311|  7.0901e+00|   -5.761604|   -6.083046|   -6.612885|   -5.852505|   -6.046641|   -7.627951|    0.815584|
|         312|  7.0894e+00|   -5.761692|   -6.083178|   -6.613002|   -5.852374|   -6.046484|   -7.628526|    0.815591|
|         313|  7.0887e+00|   -5.761786|   -6.083316|   -6.613123|   -5.852249|   -6.046332|   -7.629101|    0.815597|
|         314|  7.0879e+00|   -5.761886|   -6.083460|   -6.613250|   -5.852129|   -6.046184|   -7.629677|    0.815604|
|         315|  7.0870e+00|   -5.761993|   -6.083608|   -6.613381|   -5.852015|   -6.046040|   -7.630252|    0.815611|
|         316|  7.0861e+00|   -5.762106|   -6.083762|   -6.613518|   -5.851907|   -6.045902|   -7.630826|    0.815617|
|         317|  7.0854e+00|   -5.762225|   -6.083922|   -6.613660|   -5.851804|   -6.045768|   -7.631401|    0.815624|
|         318|  7.0848e+00|   -5.762351|   -6.084086|   -6.613807|   -5.851706|   -6.045639|   -7.631975|    0.815631|
|         319|  7.0840e+00|   -5.762482|   -6.084256|   -6.613959|   -5.851614|   -6.045514|   -7.632550|    0.815637|
|         320|  7.0838e+00|   -5.762620|   -6.084432|   -6.614116|   -5.851528|   -6.045394|   -7.633124|    0.815644|
|         321|  7.0829e+00|   -5.762764|   -6.084612|   -6.614278|   -5.851447|   -6.045278|   -7.633698|    0.815651|
|         322|  7.0819e+00|   -5.762914|   -6.084798|   -6.614445|   -5.851371|   -6.045168|   -7.634272|    0.815657|
|         323|  7.0809e+00|   -5.763071|   -6.084989|   -6.614617|   -5.851301|   -6.045061|   -7.634845|    0.815664|
|         324|  7.0801e+00|   -5.763233|   -6.085185|   -6.614794|   -5.851236|   -6.044960|   -7.635419|    0.815670|
|         325|  7.0795e+00|   -5.763402|   -6.085387|   -6.614976|   -5.851177|   -6.044863|   -7.635992|    0.815677|
|         326|  7.0795e+00|   -5.763577|   -6.085594|   -6.615163|   -5.851123|   -6.044771|   -7.636565|    0.815684|
|         327|  7.0791e+00|   -5.763758|   -6.085806|   -6.615355|   -5.851075|   -6.044683|   -7.637139|    0.815690|
|         328|  7.0786e+00|   -5.763945|   -6.086023|   -6.615552|   -5.851032|   -6.044600|   -7.637711|    0.815697|
|         329|  7.0785e+00|   -5.764139|   -6.086246|   -6.615755|   -5.850995|   -6.044522|   -7.638284|    0.815703|
|         330|  7.0778e+00|   -5.764338|   -6.086473|   -6.615962|   -5.850963|   -6.044448|   -7.638857|    0.815710|
|         331|  7.0775e+00|   -5.764543|   -6.086706|   -6.616174|   -5.850937|   -6.044379|   -7.639430|    0.815716|
|         332|  7.0773e+00|   -5.764755|   -6.086944|   -6.616391|   -5.850915|   -6.044315|   -7.640002|    0.815723|
|         333|  7.0771e+00|   -5.764972|   -6.087187|   -6.616613|   -5.850899|   -6.044255|   -7.640574|    0.815729|
|         334|  7.0765e+00|   -5.765195|   -6.087435|   -6.616840|   -5.850889|   -6.044199|   -7.641147|    0.815735|
|         335|  7.0758e+00|   -5.765425|   -6.087688|   -6.617071|   -5.850884|   -6.044148|   -7.641719|    0.815742|
|         336|  7.0753e+00|   -5.765660|   -6.087946|   -6.617308|   -5.850884|   -6.044102|   -7.642291|    0.815748|
|         337|  7.0744e+00|   -5.765902|   -6.088210|   -6.617550|   -5.850890|   -6.044061|   -7.642863|    0.815755|
|         338|  7.0738e+00|   -5.766149|   -6.088478|   -6.617797|   -5.850901|   -6.044025|   -7.643435|    0.815761|
|         339|  7.0735e+00|   -5.766403|   -6.088752|   -6.618049|   -5.850918|   -6.043993|   -7.644006|    0.815767|
|         340|  7.0727e+00|   -5.766662|   -6.089030|   -6.618305|   -5.850939|   -6.043964|   -7.644578|    0.815774|
|         341|  7.0725e+00|   -5.766927|   -6.089314|   -6.618567|   -5.850966|   -6.043941|   -7.645150|    0.815780|
|         342|  7.0726e+00|   -5.767198|   -6.089603|   -6.618833|   -5.850998|   -6.043922|   -7.645721|    0.815786|
|         343|  7.0721e+00|   -5.767475|   -6.089897|   -6.619104|   -5.851036|   -6.043909|   -7.646293|    0.815792|
|         344|  7.0718e+00|   -5.767758|   -6.090196|   -6.619380|   -5.851079|   -6.043900|   -7.646864|    0.815799|
|         345|  7.0713e+00|   -5.768047|   -6.090500|   -6.619661|   -5.851127|   -6.043895|   -7.647436|    0.815805|
|         346|  7.0706e+00|   -5.768342|   -6.090809|   -6.619947|   -5.851182|   -6.043896|   -7.648007|    0.815811|
|         347|  7.0701e+00|   -5.768644|   -6.091124|   -6.620238|   -5.851242|   -6.043901|   -7.648578|    0.815817|
|         348|  7.0699e+00|   -5.768951|   -6.091444|   -6.620534|   -5.851307|   -6.043912|   -7.649149|    0.815824|
|         349|  7.0696e+00|   -5.769265|   -6.091769|   -6.620834|   -5.851378|   -6.043927|   -7.649721|    0.815830|
|         350|  7.0692e+00|   -5.769589|   -6.092104|   -6.621140|   -5.851461|   -6.043952|   -7.650292|    0.815836|
|         351|  7.0687e+00|   -5.769923|   -6.092448|   -6.621451|   -5.851553|   -6.043987|   -7.650863|    0.815842|
|         352|  7.0680e+00|   -5.770262|   -6.092797|   -6.621768|   -5.851652|   -6.044026|   -7.651434|    0.815848|
|         353|  7.0674e+00|   -5.770608|   -6.093151|   -6.622089|   -5.851755|   -6.044071|   -7.652005|    0.815854|
|         354|  7.0669e+00|   -5.770959|   -6.093510|   -6.622415|   -5.851865|   -6.044120|   -7.652576|    0.815860|
|         355|  7.0663e+00|   -5.771317|   -6.093875|   -6.622746|   -5.851980|   -6.044174|   -7.653147|    0.815866|
|         356|  7.0655e+00|   -5.771680|   -6.094244|   -6.623082|   -5.852100|   -6.044233|   -7.653718|    0.815872|
|         357|  7.0650e+00|   -5.772050|   -6.094619|   -6.623422|   -5.852226|   -6.044297|   -7.654289|    0.815878|
|         358|  7.0646e+00|   -5.772425|   -6.094999|   -6.623768|   -5.852357|   -6.044366|   -7.654860|    0.815885|
|         359|  7.0638e+00|   -5.772806|   -6.095383|   -6.624118|   -5.852493|   -6.044439|   -7.655431|    0.815890|
|         360|  7.0631e+00|   -5.773193|   -6.095773|   -6.624474|   -5.852635|   -6.044518|   -7.656002|    0.815896|
|         361|  7.0624e+00|   -5.773585|   -6.096168|   -6.624834|   -5.852782|   -6.044601|   -7.656573|    0.815902|
|         362|  7.0618e+00|   -5.773984|   -6.096567|   -6.625199|   -5.852935|   -6.044689|   -7.657144|    0.815908|
|         363|  7.0613e+00|   -5.774388|   -6.096971|   -6.625568|   -5.853093|   -6.044781|   -7.657715|    0.815914|
|         364|  7.0610e+00|   -5.774798|   -6.097381|   -6.625943|   -5.853256|   -6.044879|   -7.658286|    0.815920|
|         365|  7.0602e+00|   -5.775213|   -6.097795|   -6.626322|   -5.853425|   -6.044981|   -7.658857|    0.815926|
|         366|  7.0593e+00|   -5.775635|   -6.098213|   -6.626706|   -5.853599|   -6.045088|   -7.659428|    0.815932|
|         367|  7.0589e+00|   -5.776062|   -6.098637|   -6.627094|   -5.853778|   -6.045199|   -7.660000|    0.815938|
|         368|  7.0582e+00|   -5.776495|   -6.099066|   -6.627487|   -5.853963|   -6.045316|   -7.660571|    0.815943|
|         369|  7.0577e+00|   -5.776934|   -6.099499|   -6.627884|   -5.854153|   -6.045437|   -7.661142|    0.815949|
|         370|  7.0571e+00|   -5.777379|   -6.099938|   -6.628287|   -5.854349|   -6.045563|   -7.661713|    0.815955|
|         371|  7.0568e+00|   -5.777830|   -6.100381|   -6.628693|   -5.854550|   -6.045694|   -7.662285|    0.815961|
|         372|  7.0560e+00|   -5.778286|   -6.100829|   -6.629104|   -5.854756|   -6.045830|   -7.662856|    0.815966|
|         373|  7.0553e+00|   -5.778748|   -6.101281|   -6.629520|   -5.854968|   -6.045970|   -7.663428|    0.815972|
|         374|  7.0551e+00|   -5.779216|   -6.101739|   -6.629940|   -5.855185|   -6.046115|   -7.663999|    0.815978|
|         375|  7.0547e+00|   -5.779690|   -6.102201|   -6.630364|   -5.855407|   -6.046265|   -7.664571|    0.815983|
|         376|  7.0542e+00|   -5.780169|   -6.102668|   -6.630793|   -5.855635|   -6.046420|   -7.665142|    0.815989|
|         377|  7.0540e+00|   -5.780654|   -6.103140|   -6.631226|   -5.855869|   -6.046579|   -7.665713|    0.815995|
|         378|  7.0536e+00|   -5.781145|   -6.103616|   -6.631664|   -5.856107|   -6.046743|   -7.666285|    0.816000|
|         379|  7.0535e+00|   -5.781642|   -6.104097|   -6.632105|   -5.856352|   -6.046912|   -7.666856|    0.816006|
|         380|  7.0530e+00|   -5.782145|   -6.104583|   -6.632551|   -5.856601|   -6.047086|   -7.667428|    0.816011|
|         381|  7.0525e+00|   -5.782653|   -6.105074|   -6.633002|   -5.856856|   -6.047265|   -7.667999|    0.816017|
|         382|  7.0521e+00|   -5.783168|   -6.105570|   -6.633457|   -5.857117|   -6.047448|   -7.668570|    0.816022|
|         383|  7.0519e+00|   -5.783688|   -6.106070|   -6.633916|   -5.857383|   -6.047636|   -7.669142|    0.816028|
|         384|  7.0514e+00|   -5.784214|   -6.106576|   -6.634379|   -5.857654|   -6.047829|   -7.669713|    0.816033|
|         385|  7.0511e+00|   -5.784746|   -6.107085|   -6.634846|   -5.857931|   -6.048027|   -7.670285|    0.816038|
|         386|  7.0505e+00|   -5.785283|   -6.107600|   -6.635317|   -5.858213|   -6.048230|   -7.670856|    0.816044|
|         387|  7.0501e+00|   -5.785826|   -6.108119|   -6.635792|   -5.858501|   -6.048438|   -7.671428|    0.816049|
|         388|  7.0497e+00|   -5.786375|   -6.108643|   -6.636272|   -5.858794|   -6.048650|   -7.671999|    0.816054|
|         389|  7.0492e+00|   -5.786930|   -6.109172|   -6.636755|   -5.859093|   -6.048867|   -7.672571|    0.816060|
|         390|  7.0486e+00|   -5.787490|   -6.109705|   -6.637242|   -5.859397|   -6.049089|   -7.673142|    0.816065|
|         391|  7.0481e+00|   -5.788056|   -6.110243|   -6.637733|   -5.859707|   -6.049316|   -7.673714|    0.816070|
|         392|  7.0478e+00|   -5.788628|   -6.110785|   -6.638229|   -5.860021|   -6.049548|   -7.674285|    0.816076|
|         393|  7.0469e+00|   -5.789206|   -6.111333|   -6.638728|   -5.860342|   -6.049784|   -7.674857|    0.816081|
|         394|  7.0463e+00|   -5.789789|   -6.111884|   -6.639231|   -5.860668|   -6.050026|   -7.675429|    0.816086|
|         395|  7.0455e+00|   -5.790377|   -6.112441|   -6.639738|   -5.860999|   -6.050272|   -7.676000|    0.816091|
|         396|  7.0448e+00|   -5.790972|   -6.113001|   -6.640249|   -5.861335|   -6.050523|   -7.676572|    0.816096|
|         397|  7.0443e+00|   -5.791572|   -6.113567|   -6.640763|   -5.861677|   -6.050779|   -7.677143|    0.816101|
|         398|  7.0439e+00|   -5.792177|   -6.114136|   -6.641282|   -5.862025|   -6.051039|   -7.677715|    0.816106|
|         399|  7.0433e+00|   -5.792788|   -6.114711|   -6.641804|   -5.862377|   -6.051305|   -7.678287|    0.816111|
|         400|  7.0429e+00|   -5.793405|   -6.115289|   -6.642330|   -5.862735|   -6.051575|   -7.678858|    0.816117|
|         401|  7.0424e+00|   -5.794027|   -6.115873|   -6.642859|   -5.863099|   -6.051850|   -7.679430|    0.816122|
|         402|  7.0415e+00|   -5.794654|   -6.116460|   -6.643392|   -5.863468|   -6.052130|   -7.680001|    0.816127|
|         403|  7.0409e+00|   -5.795288|   -6.117052|   -6.643929|   -5.863842|   -6.052414|   -7.680573|    0.816131|
|         404|  7.0405e+00|   -5.795926|   -6.117648|   -6.644469|   -5.864221|   -6.052704|   -7.681145|    0.816136|
|         405|  7.0400e+00|   -5.796570|   -6.118249|   -6.645013|   -5.864606|   -6.052998|   -7.681716|    0.816141|
|         406|  7.0393e+00|   -5.797219|   -6.118854|   -6.645561|   -5.864996|   -6.053297|   -7.682288|    0.816146|
|         407|  7.0387e+00|   -5.797874|   -6.119464|   -6.646111|   -5.865391|   -6.053601|   -7.682860|    0.816151|
|         408|  7.0385e+00|   -5.798534|   -6.120078|   -6.646666|   -5.865791|   -6.053909|   -7.683431|    0.816156|
|         409|  7.0381e+00|   -5.799200|   -6.120696|   -6.647223|   -5.866197|   -6.054222|   -7.684003|    0.816161|
|         410|  7.0376e+00|   -5.799871|   -6.121318|   -6.647784|   -5.866608|   -6.054540|   -7.684574|    0.816166|
|         411|  7.0372e+00|   -5.800547|   -6.121944|   -6.648349|   -5.867025|   -6.054863|   -7.685146|    0.816170|
|         412|  7.0368e+00|   -5.801228|   -6.122575|   -6.648916|   -5.867446|   -6.055190|   -7.685718|    0.816175|
|         413|  7.0366e+00|   -5.801915|   -6.123210|   -6.649487|   -5.867873|   -6.055523|   -7.686289|    0.816180|
|         414|  7.0367e+00|   -5.802607|   -6.123849|   -6.650061|   -5.868306|   -6.055860|   -7.686861|    0.816184|
|         415|  7.0360e+00|   -5.803305|   -6.124493|   -6.650638|   -5.868743|   -6.056201|   -7.687432|    0.816189|
|         416|  7.0356e+00|   -5.804008|   -6.125140|   -6.651218|   -5.869186|   -6.056548|   -7.688004|    0.816194|
|         417|  7.0353e+00|   -5.804716|   -6.125792|   -6.651801|   -5.869634|   -6.056899|   -7.688575|    0.816198|
|         418|  7.0349e+00|   -5.805429|   -6.126448|   -6.652387|   -5.870088|   -6.057255|   -7.689147|    0.816203|
|         419|  7.0347e+00|   -5.806147|   -6.127108|   -6.652976|   -5.870547|   -6.057616|   -7.689718|    0.816207|
|         420|  7.0341e+00|   -5.806871|   -6.127771|   -6.653569|   -5.871011|   -6.057981|   -7.690290|    0.816212|
|         421|  7.0336e+00|   -5.807600|   -6.128439|   -6.654164|   -5.871480|   -6.058352|   -7.690861|    0.816216|
|         422|  7.0330e+00|   -5.808334|   -6.129111|   -6.654761|   -5.871954|   -6.058727|   -7.691432|    0.816221|
|         423|  7.0323e+00|   -5.809073|   -6.129787|   -6.655362|   -5.872434|   -6.059106|   -7.692003|    0.816225|
|         424|  7.0319e+00|   -5.809818|   -6.130467|   -6.655965|   -5.872919|   -6.059491|   -7.692575|    0.816230|
|         425|  7.0313e+00|   -5.810567|   -6.131151|   -6.656571|   -5.873410|   -6.059880|   -7.693146|    0.816234|
|         426|  7.0309e+00|   -5.811322|   -6.131838|   -6.657179|   -5.873905|   -6.060274|   -7.693716|    0.816239|
|         427|  7.0309e+00|   -5.812082|   -6.132530|   -6.657790|   -5.874406|   -6.060672|   -7.694287|    0.816243|
|         428|  7.0308e+00|   -5.812846|   -6.133226|   -6.658404|   -5.874912|   -6.061075|   -7.694858|    0.816247|
|         429|  7.0306e+00|   -5.813616|   -6.133925|   -6.659020|   -5.875423|   -6.061484|   -7.695428|    0.816252|
|         430|  7.0303e+00|   -5.814391|   -6.134628|   -6.659638|   -5.875940|   -6.061897|   -7.695999|    0.816256|
|         431|  7.0301e+00|   -5.815171|   -6.135335|   -6.660259|   -5.876461|   -6.062314|   -7.696569|    0.816260|
|         432|  7.0301e+00|   -5.815955|   -6.136046|   -6.660883|   -5.876988|   -6.062736|   -7.697140|    0.816264|
|         433|  7.0297e+00|   -5.816745|   -6.136760|   -6.661509|   -5.877520|   -6.063162|   -7.697710|    0.816269|
|         434|  7.0291e+00|   -5.817539|   -6.137478|   -6.662136|   -5.878056|   -6.063594|   -7.698280|    0.816273|
|         435|  7.0287e+00|   -5.818339|   -6.138201|   -6.662766|   -5.878598|   -6.064030|   -7.698850|    0.816277|
|         436|  7.0282e+00|   -5.819143|   -6.138926|   -6.663398|   -5.879145|   -6.064471|   -7.699421|    0.816281|
|         437|  7.0278e+00|   -5.819952|   -6.139655|   -6.664032|   -5.879697|   -6.064916|   -7.699991|    0.816285|
|         438|  7.0276e+00|   -5.820765|   -6.140387|   -6.664668|   -5.880254|   -6.065365|   -7.700561|    0.816289|
|         439|  7.0276e+00|   -5.821582|   -6.141122|   -6.665305|   -5.880815|   -6.065819|   -7.701131|    0.816293|
|         440|  7.0275e+00|   -5.822404|   -6.141861|   -6.665944|   -5.881381|   -6.066276|   -7.701700|    0.816297|
|         441|  7.0271e+00|   -5.823230|   -6.142602|   -6.666585|   -5.881951|   -6.066738|   -7.702270|    0.816301|
|         442|  7.0267e+00|   -5.824060|   -6.143346|   -6.667227|   -5.882526|   -6.067204|   -7.702840|    0.816305|
|         443|  7.0267e+00|   -5.824894|   -6.144093|   -6.667871|   -5.883106|   -6.067674|   -7.703409|    0.816309|
|         444|  7.0264e+00|   -5.825732|   -6.144842|   -6.668516|   -5.883690|   -6.068149|   -7.703979|    0.816313|
|         445|  7.0258e+00|   -5.826575|   -6.145594|   -6.669163|   -5.884279|   -6.068627|   -7.704548|    0.816317|
|         446|  7.0253e+00|   -5.827421|   -6.146349|   -6.669811|   -5.884872|   -6.069109|   -7.705117|    0.816320|
|         447|  7.0247e+00|   -5.828271|   -6.147107|   -6.670460|   -5.885469|   -6.069595|   -7.705686|    0.816324|
|         448|  7.0250e+00|   -5.829125|   -6.147867|   -6.671111|   -5.886071|   -6.070085|   -7.706255|    0.816328|
|         449|  7.0251e+00|   -5.829983|   -6.148629|   -6.671763|   -5.886677|   -6.070579|   -7.706824|    0.816332|
|         450|  7.0249e+00|   -5.830845|   -6.149394|   -6.672416|   -5.887287|   -6.071077|   -7.707393|    0.816335|
+-----------------------------------------------------------------------+
|        File Writing Summary       |              Filename             |
+-----------------------------------------------------------------------+
|SU2 binary restart                 |restart_flow.dat                   |
|Paraview                           |flow.vtu                           |
|Paraview surface                   |surface_flow.vtu                   |
+-----------------------------------------------------------------------+
+--------------------------------------------------------------------------------------------------------------------+
|  Inner_Iter|   Time(sec)|    rms[Rho]|   rms[RhoU]|   rms[RhoV]|   rms[RhoW]|   rms[RhoE]|     rms[nu]|          CD|
+--------------------------------------------------------------------------------------------------------------------+
|         451|  7.0749e+00|   -5.831710|   -6.150161|   -6.673070|   -5.887901|   -6.071579|   -7.707962|    0.816339|
|         452|  7.0749e+00|   -5.832578|   -6.150930|   -6.673724|   -5.888519|   -6.072084|   -7.708530|    0.816343|
|         453|  7.0748e+00|   -5.833451|   -6.151702|   -6.674380|   -5.889142|   -6.072593|   -7.709098|    0.816346|
|         454|  7.0742e+00|   -5.834326|   -6.152476|   -6.675037|   -5.889769|   -6.073106|   -7.709667|    0.816350|
|         455|  7.0737e+00|   -5.835206|   -6.153252|   -6.675694|   -5.890400|   -6.073623|   -7.710235|    0.816354|
|         456|  7.0732e+00|   -5.836088|   -6.154030|   -6.676352|   -5.891034|   -6.074143|   -7.710803|    0.816357|
|         457|  7.0725e+00|   -5.836974|   -6.154811|   -6.677011|   -5.891673|   -6.074667|   -7.711370|    0.816361|
|         458|  7.0717e+00|   -5.837864|   -6.155593|   -6.677670|   -5.892316|   -6.075195|   -7.711938|    0.816364|
|         459|  7.0710e+00|   -5.838756|   -6.156376|   -6.678331|   -5.892962|   -6.075726|   -7.712505|    0.816368|
|         460|  7.0703e+00|   -5.839651|   -6.157162|   -6.678991|   -5.893612|   -6.076261|   -7.713073|    0.816371|
|         461|  7.0698e+00|   -5.840550|   -6.157949|   -6.679652|   -5.894266|   -6.076799|   -7.713640|    0.816374|
|         462|  7.0696e+00|   -5.841451|   -6.158738|   -6.680314|   -5.894924|   -6.077340|   -7.714207|    0.816378|
|         463|  7.0694e+00|   -5.842355|   -6.159528|   -6.680976|   -5.895585|   -6.077885|   -7.714774|    0.816381|
|         464|  7.0686e+00|   -5.843262|   -6.160320|   -6.681638|   -5.896250|   -6.078433|   -7.715341|    0.816384|
|         465|  7.0679e+00|   -5.844172|   -6.161114|   -6.682300|   -5.896919|   -6.078985|   -7.715907|    0.816388|
|         466|  7.0674e+00|   -5.845084|   -6.161908|   -6.682962|   -5.897592|   -6.079540|   -7.716474|    0.816391|
|         467|  7.0670e+00|   -5.846000|   -6.162705|   -6.683625|   -5.898267|   -6.080098|   -7.717040|    0.816394|
|         468|  7.0665e+00|   -5.846917|   -6.163502|   -6.684287|   -5.898947|   -6.080660|   -7.717606|    0.816397|
|         469|  7.0661e+00|   -5.847838|   -6.164301|   -6.684949|   -5.899630|   -6.081224|   -7.718172|    0.816401|
|         470|  7.0655e+00|   -5.848760|   -6.165100|   -6.685611|   -5.900316|   -6.081792|   -7.718738|    0.816404|
|         471|  7.0650e+00|   -5.849685|   -6.165901|   -6.686273|   -5.901005|   -6.082363|   -7.719303|    0.816407|
|         472|  7.0647e+00|   -5.850613|   -6.166703|   -6.686934|   -5.901698|   -6.082937|   -7.719869|    0.816410|
|         473|  7.0642e+00|   -5.851542|   -6.167505|   -6.687595|   -5.902394|   -6.083514|   -7.720434|    0.816413|
|         474|  7.0638e+00|   -5.852474|   -6.168309|   -6.688255|   -5.903094|   -6.084094|   -7.720999|    0.816416|
|         475|  7.0635e+00|   -5.853407|   -6.169113|   -6.688915|   -5.903796|   -6.084677|   -7.721564|    0.816419|
|         476|  7.0631e+00|   -5.854343|   -6.169918|   -6.689574|   -5.904502|   -6.085263|   -7.722129|    0.816422|
|         477|  7.0627e+00|   -5.855280|   -6.170724|   -6.690233|   -5.905210|   -6.085852|   -7.722694|    0.816425|
|         478|  7.0623e+00|   -5.856219|   -6.171530|   -6.690890|   -5.905922|   -6.086444|   -7.723258|    0.816428|
|         479|  7.0621e+00|   -5.857160|   -6.172336|   -6.691547|   -5.906636|   -6.087038|   -7.723822|    0.816431|
|         480|  7.0618e+00|   -5.858102|   -6.173143|   -6.692203|   -5.907354|   -6.087636|   -7.724386|    0.816433|
|         481|  7.0615e+00|   -5.859046|   -6.173950|   -6.692859|   -5.908074|   -6.088236|   -7.724950|    0.816436|
|         482|  7.0612e+00|   -5.859992|   -6.174758|   -6.693513|   -5.908797|   -6.088838|   -7.725514|    0.816439|
|         483|  7.0607e+00|   -5.860938|   -6.175565|   -6.694166|   -5.909523|   -6.089444|   -7.726077|    0.816442|
|         484|  7.0599e+00|   -5.861886|   -6.176372|   -6.694818|   -5.910252|   -6.090052|   -7.726641|    0.816445|
|         485|  7.0594e+00|   -5.862836|   -6.177180|   -6.695468|   -5.910983|   -6.090662|   -7.727204|    0.816447|
|         486|  7.0588e+00|   -5.863786|   -6.177987|   -6.696117|   -5.911717|   -6.091275|   -7.727767|    0.816450|
|         487|  7.0581e+00|   -5.864737|   -6.178794|   -6.696766|   -5.912453|   -6.091891|   -7.728330|    0.816453|
|         488|  7.0578e+00|   -5.865689|   -6.179601|   -6.697412|   -5.913192|   -6.092509|   -7.728893|    0.816455|
|         489|  7.0575e+00|   -5.866642|   -6.180407|   -6.698057|   -5.913933|   -6.093129|   -7.729455|    0.816458|
|         490|  7.0569e+00|   -5.867596|   -6.181213|   -6.698701|   -5.914677|   -6.093751|   -7.730017|    0.816460|
|         491|  7.0560e+00|   -5.868549|   -6.182017|   -6.699342|   -5.915422|   -6.094376|   -7.730580|    0.816463|
|         492|  7.0554e+00|   -5.869504|   -6.182822|   -6.699982|   -5.916170|   -6.095003|   -7.731142|    0.816465|
|         493|  7.0548e+00|   -5.870459|   -6.183625|   -6.700620|   -5.916920|   -6.095632|   -7.731703|    0.816468|
|         494|  7.0541e+00|   -5.871413|   -6.184427|   -6.701256|   -5.917672|   -6.096263|   -7.732265|    0.816470|
|         495|  7.0536e+00|   -5.872368|   -6.185228|   -6.701890|   -5.918426|   -6.096896|   -7.732826|    0.816473|
|         496|  7.0530e+00|   -5.873323|   -6.186028|   -6.702522|   -5.919182|   -6.097531|   -7.733388|    0.816475|
|         497|  7.0524e+00|   -5.874277|   -6.186826|   -6.703152|   -5.919939|   -6.098167|   -7.733949|    0.816477|
|         498|  7.0520e+00|   -5.875231|   -6.187623|   -6.703779|   -5.920698|   -6.098806|   -7.734510|    0.816480|
|         499|  7.0515e+00|   -5.876184|   -6.188418|   -6.704404|   -5.921458|   -6.099446|   -7.735071|    0.816482|
|         500|  7.0510e+00|   -5.877137|   -6.189211|   -6.705027|   -5.922220|   -6.100087|   -7.735631|    0.816484|
|         501|  7.0504e+00|   -5.878089|   -6.190002|   -6.705647|   -5.922984|   -6.100730|   -7.736192|    0.816486|
|         502|  7.0501e+00|   -5.879040|   -6.190791|   -6.706264|   -5.923748|   -6.101375|   -7.736752|    0.816488|
|         503|  7.0495e+00|   -5.879990|   -6.191577|   -6.706879|   -5.924514|   -6.102020|   -7.737312|    0.816491|
|         504|  7.0491e+00|   -5.880939|   -6.192362|   -6.707491|   -5.925281|   -6.102668|   -7.737872|    0.816493|
|         505|  7.0487e+00|   -5.881886|   -6.193144|   -6.708100|   -5.926049|   -6.103316|   -7.738432|    0.816495|
|         506|  7.0483e+00|   -5.882832|   -6.193923|   -6.708706|   -5.926819|   -6.103965|   -7.738992|    0.816497|
|         507|  7.0478e+00|   -5.883776|   -6.194700|   -6.709310|   -5.927589|   -6.104616|   -7.739551|    0.816499|
|         508|  7.0472e+00|   -5.884719|   -6.195474|   -6.709910|   -5.928359|   -6.105268|   -7.740110|    0.816501|
|         509|  7.0468e+00|   -5.885660|   -6.196245|   -6.710507|   -5.929131|   -6.105921|   -7.740670|    0.816503|
|         510|  7.0464e+00|   -5.886599|   -6.197013|   -6.711101|   -5.929903|   -6.106574|   -7.741229|    0.816505|
|         511|  7.0461e+00|   -5.887536|   -6.197778|   -6.711692|   -5.930676|   -6.107229|   -7.741788|    0.816507|
|         512|  7.0458e+00|   -5.888471|   -6.198540|   -6.712279|   -5.931450|   -6.107884|   -7.742347|    0.816509|
|         513|  7.0453e+00|   -5.889403|   -6.199298|   -6.712863|   -5.932224|   -6.108540|   -7.742905|    0.816511|
|         514|  7.0449e+00|   -5.890333|   -6.200052|   -6.713444|   -5.932998|   -6.109197|   -7.743464|    0.816512|
|         515|  7.0445e+00|   -5.891260|   -6.200803|   -6.714021|   -5.933772|   -6.109854|   -7.744022|    0.816514|
|         516|  7.0443e+00|   -5.892184|   -6.201550|   -6.714594|   -5.934546|   -6.110512|   -7.744581|    0.816516|
|         517|  7.0439e+00|   -5.893105|   -6.202293|   -6.715164|   -5.935321|   -6.111170|   -7.745139|    0.816518|
|         518|  7.0435e+00|   -5.894024|   -6.203032|   -6.715730|   -5.936095|   -6.111828|   -7.745697|    0.816519|
|         519|  7.0428e+00|   -5.894939|   -6.203767|   -6.716292|   -5.936870|   -6.112487|   -7.746255|    0.816521|
|         520|  7.0423e+00|   -5.895850|   -6.204498|   -6.716850|   -5.937644|   -6.113146|   -7.746813|    0.816523|
|         521|  7.0419e+00|   -5.896758|   -6.205224|   -6.717404|   -5.938417|   -6.113804|   -7.747371|    0.816524|
|         522|  7.0415e+00|   -5.897663|   -6.205946|   -6.717955|   -5.939191|   -6.114464|   -7.747929|    0.816526|
|         523|  7.0409e+00|   -5.898565|   -6.206664|   -6.718501|   -5.939965|   -6.115124|   -7.748486|    0.816528|
|         524|  7.0405e+00|   -5.899462|   -6.207376|   -6.719043|   -5.940737|   -6.115783|   -7.749044|    0.816529|
|         525|  7.0399e+00|   -5.900355|   -6.208084|   -6.719580|   -5.941509|   -6.116443|   -7.749601|    0.816531|
|         526|  7.0393e+00|   -5.901244|   -6.208787|   -6.720113|   -5.942280|   -6.117101|   -7.750158|    0.816532|
|         527|  7.0389e+00|   -5.902128|   -6.209484|   -6.720642|   -5.943050|   -6.117760|   -7.750715|    0.816533|
|         528|  7.0383e+00|   -5.903008|   -6.210176|   -6.721166|   -5.943819|   -6.118417|   -7.751273|    0.816535|
|         529|  7.0377e+00|   -5.903883|   -6.210863|   -6.721685|   -5.944587|   -6.119075|   -7.751830|    0.816536|
|         530|  7.0372e+00|   -5.904753|   -6.211544|   -6.722200|   -5.945353|   -6.119731|   -7.752387|    0.816538|
|         531|  7.0366e+00|   -5.905618|   -6.212219|   -6.722710|   -5.946118|   -6.120387|   -7.752943|    0.816539|
|         532|  7.0361e+00|   -5.906478|   -6.212889|   -6.723216|   -5.946882|   -6.121042|   -7.753500|    0.816540|
|         533|  7.0355e+00|   -5.907333|   -6.213552|   -6.723716|   -5.947643|   -6.121696|   -7.754057|    0.816542|
|         534|  7.0349e+00|   -5.908182|   -6.214209|   -6.724212|   -5.948403|   -6.122348|   -7.754614|    0.816543|
|         535|  7.0344e+00|   -5.909025|   -6.214861|   -6.724702|   -5.949161|   -6.123000|   -7.755170|    0.816544|
|         536|  7.0338e+00|   -5.909862|   -6.215506|   -6.725188|   -5.949917|   -6.123650|   -7.755727|    0.816545|
|         537|  7.0332e+00|   -5.910694|   -6.216144|   -6.725669|   -5.950671|   -6.124299|   -7.756283|    0.816546|
|         538|  7.0325e+00|   -5.911519|   -6.216776|   -6.726145|   -5.951422|   -6.124946|   -7.756840|    0.816547|
[...]
|        5615|  6.4803e+00|   -6.121080|   -6.416141|   -6.819251|   -6.227194|   -6.397641|   -8.626292|    0.816179|
|        5616|  6.4802e+00|   -6.120748|   -6.415944|   -6.819058|   -6.226814|   -6.397367|   -8.626713|    0.816181|
|        5617|  6.4801e+00|   -6.120417|   -6.415748|   -6.818865|   -6.226435|   -6.397092|   -8.627134|    0.816183|
|        5618|  6.4800e+00|   -6.120085|   -6.415551|   -6.818673|   -6.226056|   -6.396816|   -8.627557|    0.816186|
|        5619|  6.4799e+00|   -6.119755|   -6.415355|   -6.818481|   -6.225676|   -6.396540|   -8.627980|    0.816188|
|        5620|  6.4798e+00|   -6.119424|   -6.415158|   -6.818289|   -6.225297|   -6.396264|   -8.628403|    0.816191|
|        5621|  6.4797e+00|   -6.119094|   -6.414961|   -6.818098|   -6.224917|   -6.395988|   -8.628828|    0.816193|
|        5622|  6.4796e+00|   -6.118765|   -6.414765|   -6.817906|   -6.224538|   -6.395711|   -8.629253|    0.816196|
|        5623|  6.4795e+00|   -6.118436|   -6.414568|   -6.817715|   -6.224158|   -6.395433|   -8.629678|    0.816198|
|        5624|  6.4794e+00|   -6.118107|   -6.414372|   -6.817524|   -6.223778|   -6.395156|   -8.630105|    0.816201|
|        5625|  6.4793e+00|   -6.117779|   -6.414175|   -6.817334|   -6.223398|   -6.394877|   -8.630532|    0.816203|
|        5626|  6.4792e+00|   -6.117451|   -6.413978|   -6.817144|   -6.223018|   -6.394599|   -8.630959|    0.816206|
|        5627|  6.4791e+00|   -6.117124|   -6.413781|   -6.816955|   -6.222639|   -6.394320|   -8.631388|    0.816208|
|        5628|  6.4790e+00|   -6.116798|   -6.413585|   -6.816766|   -6.222259|   -6.394041|   -8.631817|    0.816211|
|        5629|  6.4790e+00|   -6.116472|   -6.413388|   -6.816578|   -6.221879|   -6.393762|   -8.632247|    0.816213|
|        5630|  6.4789e+00|   -6.116147|   -6.413191|   -6.816390|   -6.221499|   -6.393483|   -8.632677|    0.816216|
|        5631|  6.4788e+00|   -6.115822|   -6.412995|   -6.816204|   -6.221120|   -6.393203|   -8.633108|    0.816218|
|        5632|  6.4787e+00|   -6.115499|   -6.412798|   -6.816019|   -6.220741|   -6.392924|   -8.633540|    0.816221|
|        5633|  6.4786e+00|   -6.115176|   -6.412602|   -6.815834|   -6.220362|   -6.392644|   -8.633973|    0.816223|
|        5634|  6.4785e+00|   -6.114854|   -6.412405|   -6.815650|   -6.219983|   -6.392364|   -8.634407|    0.816226|
|        5635|  6.4784e+00|   -6.114532|   -6.412209|   -6.815466|   -6.219605|   -6.392085|   -8.634841|    0.816228|
|        5636|  6.4783e+00|   -6.114212|   -6.412012|   -6.815284|   -6.219226|   -6.391805|   -8.635276|    0.816231|
|        5637|  6.4783e+00|   -6.113892|   -6.411816|   -6.815101|   -6.218848|   -6.391524|   -8.635711|    0.816234|
|        5638|  6.4782e+00|   -6.113572|   -6.411620|   -6.814920|   -6.218470|   -6.391244|   -8.636148|    0.816236|
|        5639|  6.4781e+00|   -6.113254|   -6.411424|   -6.814739|   -6.218093|   -6.390964|   -8.636585|    0.816239|
|        5640|  6.4780e+00|   -6.112937|   -6.411228|   -6.814558|   -6.217716|   -6.390683|   -8.637023|    0.816241|
|        5641|  6.4779e+00|   -6.112620|   -6.411032|   -6.814379|   -6.217339|   -6.390403|   -8.637461|    0.816244|
|        5642|  6.4779e+00|   -6.112304|   -6.410836|   -6.814200|   -6.216963|   -6.390123|   -8.637901|    0.816246|
|        5643|  6.4778e+00|   -6.111989|   -6.410640|   -6.814022|   -6.216587|   -6.389842|   -8.638341|    0.816249|
|        5644|  6.4777e+00|   -6.111675|   -6.410445|   -6.813844|   -6.216212|   -6.389562|   -8.638782|    0.816251|
|        5645|  6.4776e+00|   -6.111362|   -6.410249|   -6.813667|   -6.215837|   -6.389281|   -8.639224|    0.816254|
|        5646|  6.4776e+00|   -6.111050|   -6.410053|   -6.813491|   -6.215462|   -6.389001|   -8.639666|    0.816257|
|        5647|  6.4775e+00|   -6.110738|   -6.409858|   -6.813315|   -6.215088|   -6.388720|   -8.640110|    0.816259|
|        5648|  6.4774e+00|   -6.110428|   -6.409663|   -6.813140|   -6.214714|   -6.388440|   -8.640554|    0.816262|
|        5649|  6.4773e+00|   -6.110118|   -6.409468|   -6.812966|   -6.214340|   -6.388159|   -8.640999|    0.816264|
|        5650|  6.4772e+00|   -6.109809|   -6.409272|   -6.812793|   -6.213968|   -6.387879|   -8.641444|    0.816267|
|        5651|  6.4771e+00|   -6.109501|   -6.409077|   -6.812620|   -6.213595|   -6.387598|   -8.641891|    0.816270|
|        5652|  6.4771e+00|   -6.109194|   -6.408882|   -6.812449|   -6.213223|   -6.387318|   -8.642339|    0.816272|
|        5653|  6.4770e+00|   -6.108888|   -6.408687|   -6.812278|   -6.212852|   -6.387037|   -8.642787|    0.816275|
|        5654|  6.4769e+00|   -6.108583|   -6.408492|   -6.812108|   -6.212481|   -6.386757|   -8.643236|    0.816277|
|        5655|  6.4768e+00|   -6.108279|   -6.408298|   -6.811938|   -6.212111|   -6.386476|   -8.643686|    0.816280|
|        5656|  6.4767e+00|   -6.107976|   -6.408103|   -6.811770|   -6.211741|   -6.386196|   -8.644137|    0.816283|
|        5657|  6.4767e+00|   -6.107674|   -6.407909|   -6.811603|   -6.211372|   -6.385916|   -8.644589|    0.816285|
|        5658|  6.4766e+00|   -6.107373|   -6.407714|   -6.811436|   -6.211004|   -6.385636|   -8.645041|    0.816288|
|        5659|  6.4765e+00|   -6.107073|   -6.407520|   -6.811270|   -6.210636|   -6.385357|   -8.645495|    0.816291|
|        5660|  6.4764e+00|   -6.106774|   -6.407326|   -6.811105|   -6.210268|   -6.385077|   -8.645949|    0.816293|
|        5661|  6.4763e+00|   -6.106476|   -6.407132|   -6.810941|   -6.209902|   -6.384797|   -8.646405|    0.816296|
|        5662|  6.4763e+00|   -6.106179|   -6.406938|   -6.810779|   -6.209536|   -6.384518|   -8.646861|    0.816299|
|        5663|  6.4762e+00|   -6.105883|   -6.406745|   -6.810617|   -6.209171|   -6.384239|   -8.647318|    0.816301|
|        5664|  6.4761e+00|   -6.105588|   -6.406551|   -6.810456|   -6.208806|   -6.383960|   -8.647776|    0.816304|
|        5665|  6.4760e+00|   -6.105295|   -6.406358|   -6.810296|   -6.208442|   -6.383681|   -8.648235|    0.816306|
|        5666|  6.4759e+00|   -6.105002|   -6.406165|   -6.810137|   -6.208079|   -6.383402|   -8.648695|    0.816309|
|        5667|  6.4759e+00|   -6.104710|   -6.405972|   -6.809978|   -6.207717|   -6.383123|   -8.649156|    0.816312|
|        5668|  6.4758e+00|   -6.104420|   -6.405779|   -6.809821|   -6.207355|   -6.382845|   -8.649618|    0.816314|
|        5669|  6.4757e+00|   -6.104130|   -6.405586|   -6.809664|   -6.206993|   -6.382567|   -8.650080|    0.816317|
|        5670|  6.4756e+00|   -6.103842|   -6.405394|   -6.809509|   -6.206633|   -6.382288|   -8.650544|    0.816320|
|        5671|  6.4755e+00|   -6.103555|   -6.405202|   -6.809354|   -6.206273|   -6.382010|   -8.651009|    0.816322|
|        5672|  6.4754e+00|   -6.103268|   -6.405009|   -6.809201|   -6.205914|   -6.381732|   -8.651475|    0.816325|
|        5673|  6.4754e+00|   -6.102983|   -6.404817|   -6.809048|   -6.205556|   -6.381455|   -8.651942|    0.816328|
|        5674|  6.4753e+00|   -6.102699|   -6.404625|   -6.808897|   -6.205198|   -6.381177|   -8.652409|    0.816330|
|        5675|  6.4752e+00|   -6.102417|   -6.404434|   -6.808747|   -6.204842|   -6.380900|   -8.652878|    0.816333|
|        5676|  6.4751e+00|   -6.102135|   -6.404242|   -6.808598|   -6.204486|   -6.380623|   -8.653348|    0.816336|
|        5677|  6.4750e+00|   -6.101855|   -6.404051|   -6.808449|   -6.204131|   -6.380347|   -8.653819|    0.816338|
|        5678|  6.4749e+00|   -6.101576|   -6.403860|   -6.808302|   -6.203778|   -6.380071|   -8.654291|    0.816341|
|        5679|  6.4749e+00|   -6.101298|   -6.403669|   -6.808155|   -6.203425|   -6.379795|   -8.654764|    0.816344|
|        5680|  6.4748e+00|   -6.101022|   -6.403478|   -6.808010|   -6.203073|   -6.379520|   -8.655238|    0.816346|
|        5681|  6.4747e+00|   -6.100747|   -6.403288|   -6.807865|   -6.202722|   -6.379245|   -8.655713|    0.816349|
|        5682|  6.4746e+00|   -6.100473|   -6.403098|   -6.807722|   -6.202372|   -6.378970|   -8.656189|    0.816352|
|        5683|  6.4746e+00|   -6.100200|   -6.402908|   -6.807579|   -6.202024|   -6.378696|   -8.656666|    0.816354|
|        5684|  6.4745e+00|   -6.099929|   -6.402719|   -6.807438|   -6.201676|   -6.378423|   -8.657145|    0.816357|
|        5685|  6.4744e+00|   -6.099660|   -6.402530|   -6.807298|   -6.201330|   -6.378150|   -8.657624|    0.816360|
|        5686|  6.4743e+00|   -6.099392|   -6.402341|   -6.807159|   -6.200984|   -6.377877|   -8.658105|    0.816362|
|        5687|  6.4742e+00|   -6.099125|   -6.402152|   -6.807022|   -6.200640|   -6.377605|   -8.658586|    0.816365|
|        5688|  6.4741e+00|   -6.098860|   -6.401964|   -6.806885|   -6.200297|   -6.377334|   -8.659069|    0.816368|
|        5689|  6.4740e+00|   -6.098596|   -6.401776|   -6.806748|   -6.199956|   -6.377063|   -8.659553|    0.816370|
|        5690|  6.4739e+00|   -6.098333|   -6.401589|   -6.806613|   -6.199615|   -6.376793|   -8.660038|    0.816373|
|        5691|  6.4739e+00|   -6.098073|   -6.401402|   -6.806479|   -6.199276|   -6.376523|   -8.660525|    0.816376|
|        5692|  6.4738e+00|   -6.097813|   -6.401215|   -6.806347|   -6.198939|   -6.376254|   -8.661012|    0.816378|
|        5693|  6.4737e+00|   -6.097556|   -6.401028|   -6.806216|   -6.198602|   -6.375986|   -8.661501|    0.816381|
|        5694|  6.4736e+00|   -6.097299|   -6.400842|   -6.806085|   -6.198267|   -6.375718|   -8.661990|    0.816384|
|        5695|  6.4735e+00|   -6.097045|   -6.400657|   -6.805955|   -6.197933|   -6.375451|   -8.662480|    0.816386|
|        5696|  6.4734e+00|   -6.096792|   -6.400472|   -6.805827|   -6.197600|   -6.375185|   -8.662971|    0.816389|
|        5697|  6.4733e+00|   -6.096540|   -6.400287|   -6.805701|   -6.197269|   -6.374919|   -8.663464|    0.816392|
|        5698|  6.4733e+00|   -6.096290|   -6.400103|   -6.805575|   -6.196940|   -6.374655|   -8.663957|    0.816394|
|        5699|  6.4732e+00|   -6.096042|   -6.399919|   -6.805450|   -6.196611|   -6.374390|   -8.664452|    0.816397|
|        5700|  6.4731e+00|   -6.095795|   -6.399735|   -6.805327|   -6.196284|   -6.374127|   -8.664948|    0.816400|
+-----------------------------------------------------------------------+
|        File Writing Summary       |              Filename             |
+-----------------------------------------------------------------------+
|SU2 binary restart                 |restart_flow.dat                   |
|Paraview                           |flow.vtu                           |
|Paraview surface                   |surface_flow.vtu                   |
+-----------------------------------------------------------------------+
+--------------------------------------------------------------------------------------------------------------------+
|  Inner_Iter|   Time(sec)|    rms[Rho]|   rms[RhoU]|   rms[RhoV]|   rms[RhoW]|   rms[RhoE]|     rms[nu]|          CD|
+--------------------------------------------------------------------------------------------------------------------+
|        5701|  6.4765e+00|   -6.095550|   -6.399552|   -6.805204|   -6.195958|   -6.373864|   -8.665445|    0.816403|
|        5702|  6.4765e+00|   -6.095306|   -6.399370|   -6.805083|   -6.195634|   -6.373602|   -8.665943|    0.816405|
|        5703|  6.4764e+00|   -6.095065|   -6.399188|   -6.804964|   -6.195311|   -6.373340|   -8.666443|    0.816408|
|        5704|  6.4763e+00|   -6.094825|   -6.399007|   -6.804846|   -6.194990|   -6.373080|   -8.666944|    0.816411|
|        5705|  6.4762e+00|   -6.094587|   -6.398826|   -6.804729|   -6.194671|   -6.372821|   -8.667446|    0.816413|
|        5706|  6.4762e+00|   -6.094351|   -6.398646|   -6.804614|   -6.194353|   -6.372563|   -8.667949|    0.816416|
|        5707|  6.4761e+00|   -6.094116|   -6.398467|   -6.804499|   -6.194036|   -6.372305|   -8.668454|    0.816419|
|        5708|  6.4760e+00|   -6.093883|   -6.398288|   -6.804385|   -6.193722|   -6.372048|   -8.668961|    0.816421|
|        5709|  6.4759e+00|   -6.093652|   -6.398110|   -6.804273|   -6.193408|   -6.371792|   -8.669468|    0.816424|
|        5710|  6.4758e+00|   -6.093423|   -6.397932|   -6.804162|   -6.193097|   -6.371538|   -8.669977|    0.816427|
|        5711|  6.4757e+00|   -6.093195|   -6.397755|   -6.804053|   -6.192787|   -6.371284|   -8.670487|    0.816429|
|        5712|  6.4756e+00|   -6.092970|   -6.397579|   -6.803945|   -6.192479|   -6.371031|   -8.670999|    0.816432|
|        5713|  6.4755e+00|   -6.092746|   -6.397404|   -6.803838|   -6.192173|   -6.370779|   -8.671512|    0.816435|
|        5714|  6.4755e+00|   -6.092525|   -6.397230|   -6.803733|   -6.191868|   -6.370529|   -8.672026|    0.816437|
|        5715|  6.4754e+00|   -6.092306|   -6.397057|   -6.803630|   -6.191566|   -6.370280|   -8.672542|    0.816440|
|        5716|  6.4753e+00|   -6.092089|   -6.396884|   -6.803528|   -6.191265|   -6.370032|   -8.673059|    0.816443|
|        5717|  6.4752e+00|   -6.091873|   -6.396713|   -6.803427|   -6.190966|   -6.369785|   -8.673578|    0.816445|
|        5718|  6.4751e+00|   -6.091660|   -6.396542|   -6.803328|   -6.190670|   -6.369539|   -8.674098|    0.816448|
|        5719|  6.4750e+00|   -6.091449|   -6.396373|   -6.803231|   -6.190375|   -6.369295|   -8.674620|    0.816451|
|        5720|  6.4749e+00|   -6.091240|   -6.396204|   -6.803134|   -6.190082|   -6.369052|   -8.675143|    0.816453|
|        5721|  6.4748e+00|   -6.091033|   -6.396036|   -6.803039|   -6.189791|   -6.368810|   -8.675668|    0.816456|
|        5722|  6.4747e+00|   -6.090829|   -6.395869|   -6.802946|   -6.189502|   -6.368569|   -8.676194|    0.816458|
|        5723|  6.4746e+00|   -6.090626|   -6.395704|   -6.802853|   -6.189215|   -6.368330|   -8.676722|    0.816461|
|        5724|  6.4745e+00|   -6.090426|   -6.395539|   -6.802762|   -6.188930|   -6.368092|   -8.677252|    0.816464|
|        5725|  6.4743e+00|   -6.090228|   -6.395376|   -6.802672|   -6.188648|   -6.367855|   -8.677782|    0.816466|
|        5726|  6.4742e+00|   -6.090032|   -6.395213|   -6.802583|   -6.188367|   -6.367620|   -8.678315|    0.816469|
|        5727|  6.4741e+00|   -6.089838|   -6.395052|   -6.802496|   -6.188089|   -6.367386|   -8.678849|    0.816472|
|        5728|  6.4740e+00|   -6.089646|   -6.394892|   -6.802409|   -6.187812|   -6.367153|   -8.679385|    0.816474|
|        5729|  6.4739e+00|   -6.089457|   -6.394732|   -6.802323|   -6.187538|   -6.366922|   -8.679922|    0.816477|
|        5730|  6.4739e+00|   -6.089270|   -6.394574|   -6.802238|   -6.187266|   -6.366692|   -8.680461|    0.816480|
|        5731|  6.4738e+00|   -6.089085|   -6.394418|   -6.802155|   -6.186996|   -6.366464|   -8.681001|    0.816482|
|        5732|  6.4737e+00|   -6.088903|   -6.394262|   -6.802073|   -6.186729|   -6.366237|   -8.681543|    0.816485|
|        5733|  6.4736e+00|   -6.088723|   -6.394108|   -6.801992|   -6.186464|   -6.366012|   -8.682086|    0.816487|
|        5734|  6.4735e+00|   -6.088545|   -6.393955|   -6.801913|   -6.186201|   -6.365788|   -8.682632|    0.816490|
|        5735|  6.4734e+00|   -6.088370|   -6.393804|   -6.801835|   -6.185941|   -6.365566|   -8.683178|    0.816493|
|        5736|  6.4733e+00|   -6.088197|   -6.393654|   -6.801758|   -6.185683|   -6.365346|   -8.683727|    0.816495|
|        5737|  6.4732e+00|   -6.088027|   -6.393505|   -6.801682|   -6.185427|   -6.365127|   -8.684277|    0.816498|
|        5738|  6.4731e+00|   -6.087858|   -6.393357|   -6.801606|   -6.185173|   -6.364909|   -8.684829|    0.816501|
|        5739|  6.4730e+00|   -6.087692|   -6.393210|   -6.801532|   -6.184922|   -6.364693|   -8.685382|    0.816503|
|        5740|  6.4729e+00|   -6.087529|   -6.393065|   -6.801459|   -6.184674|   -6.364479|   -8.685937|    0.816506|
|        5741|  6.4728e+00|   -6.087368|   -6.392921|   -6.801388|   -6.184428|   -6.364266|   -8.686493|    0.816508|
|        5742|  6.4726e+00|   -6.087209|   -6.392778|   -6.801319|   -6.184184|   -6.364055|   -8.687052|    0.816511|
|        5743|  6.4725e+00|   -6.087053|   -6.392637|   -6.801250|   -6.183942|   -6.363846|   -8.687612|    0.816514|
|        5744|  6.4724e+00|   -6.086900|   -6.392497|   -6.801183|   -6.183704|   -6.363638|   -8.688173|    0.816516|
|        5745|  6.4723e+00|   -6.086748|   -6.392359|   -6.801118|   -6.183467|   -6.363432|   -8.688737|    0.816519|
|        5746|  6.4722e+00|   -6.086600|   -6.392222|   -6.801053|   -6.183233|   -6.363228|   -8.689302|    0.816521|
|        5747|  6.4721e+00|   -6.086454|   -6.392087|   -6.800991|   -6.183002|   -6.363026|   -8.689868|    0.816524|
|        5748|  6.4720e+00|   -6.086311|   -6.391953|   -6.800930|   -6.182773|   -6.362826|   -8.690437|    0.816526|
|        5749|  6.4719e+00|   -6.086170|   -6.391821|   -6.800870|   -6.182547|   -6.362627|   -8.691007|    0.816529|
|        5750|  6.4718e+00|   -6.086032|   -6.391690|   -6.800812|   -6.182324|   -6.362431|   -8.691579|    0.816532|
|        5751|  6.4717e+00|   -6.085897|   -6.391560|   -6.800755|   -6.182103|   -6.362236|   -8.692152|    0.816534|
|        5752|  6.4716e+00|   -6.085764|   -6.391432|   -6.800700|   -6.181885|   -6.362043|   -8.692727|    0.816537|
|        5753|  6.4715e+00|   -6.085634|   -6.391306|   -6.800645|   -6.181669|   -6.361852|   -8.693304|    0.816539|
|        5754|  6.4714e+00|   -6.085506|   -6.391181|   -6.800593|   -6.181456|   -6.361663|   -8.693883|    0.816542|
|        5755|  6.4713e+00|   -6.085381|   -6.391058|   -6.800542|   -6.181245|   -6.361475|   -8.694463|    0.816544|
|        5756|  6.4712e+00|   -6.085259|   -6.390936|   -6.800492|   -6.181038|   -6.361290|   -8.695046|    0.816547|
|        5757|  6.4711e+00|   -6.085139|   -6.390815|   -6.800443|   -6.180833|   -6.361106|   -8.695630|    0.816549|
|        5758|  6.4710e+00|   -6.085023|   -6.390697|   -6.800396|   -6.180631|   -6.360925|   -8.696215|    0.816552|
|        5759|  6.4709e+00|   -6.084908|   -6.390580|   -6.800350|   -6.180431|   -6.360745|   -8.696803|    0.816554|
|        5760|  6.4708e+00|   -6.084797|   -6.390464|   -6.800306|   -6.180234|   -6.360568|   -8.697392|    0.816557|
|        5761|  6.4707e+00|   -6.084688|   -6.390351|   -6.800263|   -6.180040|   -6.360392|   -8.697983|    0.816560|
|        5762|  6.4706e+00|   -6.084582|   -6.390238|   -6.800221|   -6.179848|   -6.360218|   -8.698576|    0.816562|
|        5763|  6.4705e+00|   -6.084478|   -6.390127|   -6.800181|   -6.179659|   -6.360046|   -8.699171|    0.816565|
|        5764|  6.4704e+00|   -6.084376|   -6.390018|   -6.800142|   -6.179473|   -6.359876|   -8.699767|    0.816567|
|        5765|  6.4703e+00|   -6.084278|   -6.389910|   -6.800105|   -6.179289|   -6.359708|   -8.700366|    0.816570|
|        5766|  6.4702e+00|   -6.084182|   -6.389804|   -6.800069|   -6.179108|   -6.359541|   -8.700966|    0.816572|
|        5767|  6.4701e+00|   -6.084089|   -6.389699|   -6.800035|   -6.178929|   -6.359377|   -8.701568|    0.816575|
|        5768|  6.4700e+00|   -6.083998|   -6.389596|   -6.800002|   -6.178754|   -6.359214|   -8.702172|    0.816577|
|        5769|  6.4699e+00|   -6.083910|   -6.389495|   -6.799971|   -6.178581|   -6.359054|   -8.702777|    0.816580|
|        5770|  6.4698e+00|   -6.083825|   -6.389395|   -6.799941|   -6.178410|   -6.358895|   -8.703385|    0.816582|
|        5771|  6.4698e+00|   -6.083742|   -6.389296|   -6.799913|   -6.178243|   -6.358738|   -8.703994|    0.816585|
|        5772|  6.4697e+00|   -6.083662|   -6.389199|   -6.799886|   -6.178078|   -6.358584|   -8.704606|    0.816587|
|        5773|  6.4696e+00|   -6.083584|   -6.389104|   -6.799861|   -6.177915|   -6.358431|   -8.705219|    0.816589|
|        5774|  6.4695e+00|   -6.083510|   -6.389010|   -6.799837|   -6.177756|   -6.358280|   -8.705834|    0.816592|
