Nodes:  tri[0347,0359]
Tasks:  128
NPN:    64
Config: /scratch/anthonyy/reentry/orion/config/generated/m6_aoa60.cfg

-------------------------------------------------------------------------
|    ___ _   _ ___                                                      |
|   / __| | | |_  )   Release 7.5.1 "Blackbird"                         |
|   \__ \ |_| |/ /                                                      |
|   |___/\___//___|   Suite (Computational Fluid Dynamics Code)         |
|                                                                       |
-------------------------------------------------------------------------
| SU2 Project Website: https://su2code.github.io                        |
|                                                                       |
| The SU2 Project is maintained by the SU2 Foundation                   |
| (http://su2foundation.org)                                            |
-------------------------------------------------------------------------
| Copyright 2012-2023, SU2 Contributors                                 |
|                                                                       |
| SU2 is free software; you can redistribute it and/or                  |
| modify it under the terms of the GNU Lesser General Public            |
| License as published by the Free Software Foundation; either          |
| version 2.1 of the License, or (at your option) any later version.    |
|                                                                       |
| SU2 is distributed in the hope that it will be useful,                |
| but WITHOUT ANY WARRANTY; without even the implied warranty of        |
| MERCHANTABILITY or FITNESS FOR A PARTICULAR PURPOSE. See the GNU      |
| Lesser General Public License for more details.                       |
|                                                                       |
| You should have received a copy of the GNU Lesser General Public      |
| License along with SU2. If not, see <http://www.gnu.org/licenses/>.   |
-------------------------------------------------------------------------

Parsing config file for zone 0

----------------- Physical Case Definition ( Zone 0 ) -------------------
Compressible RANS equations.
Turbulence model: Spalart-Allmaras-noft2
Hybrid RANS/LES: No Hybrid RANS/LES
Mach number: 6.
Angle of attack (AoA): 60 deg, and angle of sideslip (AoS): 0 deg.
Reynolds number: 6.86229e+08. Reference length 5.
No restart solution, use the values at infinity (freestream).
Non-Dimensional simulation (V=1.0, Rho=1.0, T=1.0 at the farfield).
The reference area will be computed using y(2D) or z(3D) projection.
The semi-span will be computed using the max y(3D) value.
The reference length is 0.64607 m.
Reference origin for moment evaluation is (0.25, 0, 0).
Surface(s) where the force coefficients are evaluated: ORION_SURFACE.

Input mesh file name: ../../mesh/fine.su2

--------------- Space Numerical Integration ( Zone 0 ) ------------------
Jameson-Schmidt-Turkel scheme (2nd order in space) for the flow inviscid terms.
JST viscous coefficients (2nd & 4th): 0.5, 0.02.
The method includes a grid stretching correction (p = 0.3).
Scalar upwind solver for the turbulence model.
First order integration in space.
Average of gradients with correction (viscous flow terms).
Average of gradients with correction (viscous turbulence terms).
Gradient for upwind reconstruction: Green-Gauss.
Gradient for viscous and source terms: Green-Gauss.

--------------- Time Numerical Integration  ( Zone 0 ) ------------------
Local time stepping (steady state simulation).
Euler implicit method for the flow equations.
FGMRES is used for solving the linear system.
Using a ILU(0) preconditioning.
Convergence criteria of the linear solver: 1e-06.
Max number of linear iterations: 100.
CFL adaptation. Factor down: 0.5, factor up: 1.1,
                lower limit: 0.05, upper limit: 0.5,
                acceptable linear residual: 0.001.
Courant-Friedrichs-Lewy number:     0.03
Euler implicit time integration for the turbulence model.

------------------ Convergence Criteria  ( Zone 0 ) ---------------------
Maximum number of solver subiterations: 999999.
Begin convergence monitoring at iteration 5.
Residual minimum value: 1e-8.
Cauchy series min. value: 1e-10.
Number of Cauchy elements: 100.
Begin windowed time average at iteration 0.

-------------------- Output Information ( Zone 0 ) ----------------------
File writing frequency: 
+------------------------------------+
|                     File| Frequency|
+------------------------------------+
|                  RESTART|       150|
|                 PARAVIEW|       150|
|         SURFACE_PARAVIEW|       150|
+------------------------------------+
Writing the convergence history file every 1 inner iterations.
Writing the screen convergence history every 1 inner iterations.
The tabular file format is CSV (.csv).
Convergence history file name: history.
Forces breakdown file name: forces_breakdown.dat.
Surface file name: surface_flow.
Volume file name: flow.
Restart file name: restart_flow.

------------- Config File Boundary Information ( Zone 0 ) ---------------
+-----------------------------------------------------------------------+
|                        Marker Type|                        Marker Name|
+-----------------------------------------------------------------------+
|                          Far-field|                           FARFIELD|
+-----------------------------------------------------------------------+
|                     Heat flux wall|                      ORION_SURFACE|
+-----------------------------------------------------------------------+

-------------------- Output Preprocessing ( Zone 0 ) --------------------

WARNING: SURFACE_PRESSURE_DROP can only be computed for at least 2 surfaces (outlet, inlet, ...)

Screen output fields: INNER_ITER, WALL_TIME, RMS_DENSITY, RMS_MOMENTUM-X, RMS_MOMENTUM-Y, RMS_MOMENTUM-Z, RMS_ENERGY, RMS_NU_TILDE, DRAG
History output group(s): ITER, RMS_RES
Convergence field(s): RMS_DENSITY
Warning: No (valid) fields chosen for time convergence monitoring. Time convergence monitoring inactive.
Volume output fields: MACH, PRESSURE, TEMPERATURE, DENSITY, HEAT_FLUX, Y_PLUS, COORDINATES, SOLUTION

------------------- Geometry Preprocessing ( Zone 0 ) -------------------
Three dimensional problem.
62211324 grid points before partitioning.
190879888 volume elements before partitioning.
2 surface markers.
4104 boundary elements in index 0 (Marker = FARFIELD).
1824836 boundary elements in index 1 (Marker = ORION_SURFACE).
Executing the partitioning functions.
Building the graph adjacency structure.
Calling ParMETIS... graph partitioning complete (4959327 edge cuts).
Distributing ParMETIS coloring.
Rebalancing vertices.
Rebalancing volume element connectivity.
Rebalancing markers and surface elements.
66952290 vertices including ghost points. 
197997438 interior elements including halo cells. 
103171259 tetrahedra.
94500655 prisms.
325524 pyramids.
Establishing MPI communication patterns.
Setting point connectivity.
Renumbering points (Reverse Cuthill McKee Ordering).
Recomputing point connectivity.
Setting element connectivity.
Checking the numerical grid orientation.
All volume elements are correctly orientend.
All surface elements are correctly orientend.
Identifying edges and vertices.
Setting the control volume structure.
Volume of the computational grid: 535693.
Searching for the closest normal neighbors to the surfaces.
Storing a mapping from global to local point index.
Compute the surface curvature.
Max K: 132.896. Mean K: 3.9104. Standard deviation K: 7.49569.
Checking for periodicity.
Computing mesh quality statistics for the dual control volumes.
+--------------------------------------------------------------+
|           Mesh Quality Metric|        Minimum|        Maximum|
+--------------------------------------------------------------+
|    Orthogonality Angle (deg.)|        53.0661|             90|
|     CV Face Area Aspect Ratio|        1.01143|        75298.5|
|           CV Sub-Volume Ratio|        1.00029|        45.0258|
+--------------------------------------------------------------+
Finding max control volume width.
Communicating number of neighbors.
Reference area = 11.531 m^2.
Semi-span length = 2.49999 m.
Wetted area = 57.9072 m^2.
Area projection in the x-plane = 19.6343 m^2, y-plane = 11.531 m^2, z-plane = 11.531 m^2.
Max. coordinate in the x-direction = 2.575 m, y-direction = 2.49999 m, z-direction = 2.49999 m.
Min. coordinate in the x-direction = -0.71 m, y-direction = -2.49999 m, z-direction = -2.5 m.
Computing wall distances.

-------------------- Solver Preprocessing ( Zone 0 ) --------------------
Viscous flow: Computing pressure using the ideal gas law
based on the free-stream temperature and a density computed
from the Reynolds number.
Force coefficients computed using free-stream values.

-- Models:
+------------------------------------------------------------------------------+
|          Viscosity Model|        Conductivity Model|              Fluid Model|
+------------------------------------------------------------------------------+
|               SUTHERLAND|          CONSTANT_PRANDTL|             STANDARD_AIR|
+------------------------------------------------------------------------------+
-- Fluid properties:
+------------------------------------------------------------------------------+
|                  Name|    Dim. value|    Ref. value|      Unit|Non-dim. value|
+------------------------------------------------------------------------------+
|        Ref. Viscosity|     1.716e-05|       2455.73|   N.s/m^2|   6.98773e-09|
|      Sutherland Temp.|        273.15|        288.15|         K|      0.947944|
|     Sutherland Const.|         110.4|        288.15|         K|      0.383134|
+------------------------------------------------------------------------------+
|        Prandtl (Lam.)|             -|             -|         -|          0.72|
|       Prandtl (Turb.)|             -|             -|         -|           0.9|
+------------------------------------------------------------------------------+
|          Gas Constant|       287.058|       14467.7|  N.m/kg.K|     0.0198413|
|      Spec. Heat Ratio|             -|             -|         -|           1.4|
+------------------------------------------------------------------------------+
-- Initial and free-stream conditions:
+------------------------------------------------------------------------------+
|                  Name|    Dim. value|    Ref. value|      Unit|Non-dim. value|
+------------------------------------------------------------------------------+
|       Static Pressure|       99485.6|   5.01407e+06|        Pa|     0.0198413|
|               Density|       1.20274|       1.20274|    kg/m^3|             1|
|           Temperature|        288.15|        288.15|         K|             1|
|          Total Energy|   2.29123e+06|   4.16887e+06|   m^2/s^2|      0.549603|
|            Velocity-X|       1020.89|       2041.78|       m/s|           0.5|
|            Velocity-Y|             0|       2041.78|       m/s|             0|
|            Velocity-Z|       1768.24|       2041.78|       m/s|      0.866025|
|    Velocity Magnitude|       2041.78|       2041.78|       m/s|             1|
+------------------------------------------------------------------------------+
|             Viscosity|    1.7893e-05|       2455.73|   N.s/m^2|    7.2862e-09|
|          Conductivity|             -|   3.55289e+07|   W/m^2.K|             -|
|     Turb. Kin. Energy|       15633.3|   4.16887e+06|   m^2/s^2|       0.00375|
|     Spec. Dissipation|   1.05085e+08|       2041.78|       1/s|       51467.1|
+------------------------------------------------------------------------------+
|           Mach Number|             -|             -|         -|             6|
|       Reynolds Number|             -|             -|         -|   6.86229e+08|
+------------------------------------------------------------------------------+
Initialize Jacobian structure (Navier-Stokes). MG level: 0.
Initialize Jacobian structure (SA model).

------------------- Numerics Preprocessing ( Zone 0 ) -------------------

----------------- Integration Preprocessing ( Zone 0 ) ------------------

------------------- Iteration Preprocessing ( Zone 0 ) ------------------
Euler/Navier-Stokes/RANS fluid iteration.

------------------------------ Begin Solver -----------------------------

Simulation Run using the Single-zone Driver
WARNING: SU2 was not compiled for an AVX-capable architecture. Performance could be better,
         see https://su2code.github.io/docs_v7/Build-SU2-Linux-MacOS/#compiler-optimizations
+--------------------------------------------------------------------------------------------------------------------+
|  Inner_Iter|   Time(sec)|    rms[Rho]|   rms[RhoU]|   rms[RhoV]|   rms[RhoW]|   rms[RhoE]|     rms[nu]|          CD|
+--------------------------------------------------------------------------------------------------------------------+
|           0|  2.2110e+01|   -5.358670|  -16.282167|  -17.679197|  -16.043716|   -5.603219|  -13.264241|    0.372281|
|           1|  1.4817e+01|   -5.509177|   -5.841814|   -6.418690|   -5.570555|   -5.743116|  -13.053337|    0.385350|
|           2|  1.2315e+01|   -5.511508|   -5.851026|   -6.424559|   -5.579637|   -5.745884|  -13.072282|    0.399489|
|           3|  1.1034e+01|   -5.513875|   -5.859450|   -6.430449|   -5.588005|   -5.748482|  -13.091778|    0.414747|
|           4|  1.0281e+01|   -5.516289|   -5.867289|   -6.436368|   -5.595853|   -5.750952|  -13.111370|    0.431195|
|           5|  9.7963e+00|   -5.518754|   -5.874682|   -6.442315|   -5.603319|   -5.753325|  -13.130834|    0.448913|
|           6|  9.4642e+00|   -5.521274|   -5.881731|   -6.448279|   -5.610508|   -5.755622|  -13.150068|    0.467981|
|           7|  9.2106e+00|   -5.523845|   -5.888512|   -6.454239|   -5.617499|   -5.757859|  -13.169010|    0.488480|
|           8|  8.9860e+00|   -5.526462|   -5.895075|   -6.460160|   -5.624353|   -5.760042|  -13.187601|    0.510490|
|           9|  8.9035e+00|   -5.529112|   -5.901453|   -6.465992|   -5.631117|   -5.762175|  -13.205779|    0.534092|
|          10|  8.8291e+00|   -5.531778|   -5.907658|   -6.471667|   -5.637819|   -5.764255|  -13.223583|    0.559366|
|          11|  8.7746e+00|   -5.534439|   -5.913661|   -6.477104|   -5.644460|   -5.766273|  -13.241031|    0.586394|
|          12|  8.7448e+00|   -5.537068|   -5.919402|   -6.482205|   -5.651015|   -5.768217|  -13.258700|    0.615259|
|          13|  8.7153e+00|   -5.539626|   -5.924877|   -6.486862|   -5.657514|   -5.770063|  -13.277678|    0.646047|
|          14|  8.6854e+00|   -5.542073|   -5.930053|   -6.490933|   -5.663973|   -5.771784|  -13.295720|    0.678845|
|          15|  8.6720e+00|   -5.544366|   -5.934845|   -6.494192|   -5.670371|   -5.773353|  -13.312868|    0.713739|
|          16|  8.6559e+00|   -5.546445|   -5.939118|   -6.496391|   -5.676652|   -5.774713|  -13.329139|    0.750811|
|          17|  8.6348e+00|   -5.548237|   -5.942693|   -6.497247|   -5.682729|   -5.775789|  -13.344511|    0.790112|
|          18|  8.6264e+00|   -5.549660|   -5.945359|   -6.496430|   -5.688480|   -5.776480|  -13.358942|    0.831698|
|          19|  8.6517e+00|   -5.550639|   -5.946871|   -6.493618|   -5.693756|   -5.776676|  -13.373202|    0.875619|
|          20|  8.6697e+00|   -5.551110|   -5.946981|   -6.488508|   -5.698402|   -5.776258|  -13.386640|    0.921915|
|          21|  8.6869e+00|   -5.551040|   -5.945488|   -6.480835|   -5.702291|   -5.775118|  -13.398873|    0.970622|
|          22|  8.7007e+00|   -5.550470|   -5.942336|   -6.470424|   -5.705402|   -5.773227|  -13.409870|    1.021789|
|          23|  8.7091e+00|   -5.549483|   -5.937571|   -6.457249|   -5.707783|   -5.770612|  -13.419959|    1.075478|
|          24|  8.7192e+00|   -5.548163|   -5.931157|   -6.441413|   -5.709425|   -5.767354|  -13.429157|    1.131716|
|          25|  8.7264e+00|   -5.546749|   -5.923280|   -6.423132|   -5.710542|   -5.763762|  -13.436912|    1.190466|
|          26|  8.7350e+00|   -5.545565|   -5.914108|   -6.402654|   -5.711359|   -5.760291|  -13.444181|    1.247242|
|          27|  8.7736e+00|   -5.544831|   -5.904216|   -6.381944|   -5.711728|   -5.757528|  -13.449925|    1.301228|
|          28|  8.8060e+00|   -5.544641|   -5.893863|   -6.361580|   -5.711599|   -5.755603|  -13.453852|    1.352086|
|          29|  8.8359e+00|   -5.544850|   -5.883042|   -6.341657|   -5.710706|   -5.754268|  -13.456160|    1.399373|
|          30|  8.8721e+00|   -5.545244|   -5.871857|   -6.322182|   -5.708881|   -5.753243|  -13.457043|    1.442563|
|          31|  8.8988e+00|   -5.545606|   -5.860422|   -6.303142|   -5.706189|   -5.752292|  -13.456543|    1.481065|
|          32|  8.9244e+00|   -5.545700|   -5.848969|   -6.284532|   -5.702774|   -5.751173|  -13.455006|    1.514285|
|          33|  8.9448e+00|   -5.545253|   -5.837675|   -6.266355|   -5.698758|   -5.749596|  -13.452604|    1.541652|
|          34|  8.9655e+00|   -5.543750|   -5.826388|   -6.248594|   -5.693906|   -5.746983|  -13.448770|    1.562641|
|          35|  8.9871e+00|   -5.540614|   -5.814878|   -6.231208|   -5.687935|   -5.742697|  -13.443553|    1.576742|
|          36|  9.0066e+00|   -5.535412|   -5.803132|   -6.214118|   -5.680741|   -5.736266|  -13.437101|    1.583514|
|          37|  9.0209e+00|   -5.527640|   -5.790286|   -6.197283|   -5.672388|   -5.727155|  -13.429527|    1.582636|
|          38|  9.0369e+00|   -5.517069|   -5.776144|   -6.180765|   -5.662980|   -5.715068|  -13.421099|    1.573921|
|          39|  9.0493e+00|   -5.503840|   -5.760987|   -6.164684|   -5.652674|   -5.700073|  -13.412102|    1.557354|
|          40|  9.0637e+00|   -5.488370|   -5.745277|   -6.149200|   -5.641602|   -5.682541|  -13.402779|    1.533147|
|          41|  9.0738e+00|   -5.471314|   -5.729613|   -6.134470|   -5.629911|   -5.663145|  -13.393556|    1.501757|
|          42|  9.0898e+00|   -5.453523|   -5.714797|   -6.120639|   -5.617817|   -5.642830|  -13.384456|    1.463881|
|          43|  9.0999e+00|   -5.435946|   -5.701859|   -6.107777|   -5.605533|   -5.622706|  -13.375497|    1.420380|
|          44|  9.1121e+00|   -5.419238|   -5.691277|   -6.095833|   -5.593203|   -5.603595|  -13.366634|    1.372206|
|          45|  9.1175e+00|   -5.403801|   -5.683225|   -6.084599|   -5.580938|   -5.586022|  -13.357710|    1.320382|
|          46|  9.1208e+00|   -5.389889|   -5.677643|   -6.073760|   -5.568893|   -5.570353|  -13.349329|    1.265972|
|          47|  9.1233e+00|   -5.377415|   -5.673425|   -6.062901|   -5.557158|   -5.556582|  -13.341336|    1.210076|
|          48|  9.1289e+00|   -5.366113|   -5.668918|   -6.051730|   -5.545964|   -5.544416|  -13.333119|    1.153824|
|          49|  9.1341e+00|   -5.355735|   -5.662741|   -6.039940|   -5.535683|   -5.533472|  -13.324453|    1.098262|
|          50|  9.1363e+00|   -5.346135|   -5.653761|   -6.027163|   -5.526621|   -5.523442|  -13.316066|    1.044411|
|          51|  9.1381e+00|   -5.337324|   -5.641806|   -6.013531|   -5.519040|   -5.514158|  -13.308276|    0.993271|
|          52|  9.1439e+00|   -5.329431|   -5.627683|   -5.999517|   -5.513096|   -5.505621|  -13.300776|    0.945731|
|          53|  9.1465e+00|   -5.322621|   -5.612696|   -5.985666|   -5.508758|   -5.497978|  -13.292850|    0.902540|
|          54|  9.1488e+00|   -5.317043|   -5.598302|   -5.972469|   -5.505796|   -5.491464|  -13.283859|    0.864289|
|          55|  9.1567e+00|   -5.312763|   -5.585786|   -5.960284|   -5.503789|   -5.486286|  -13.274131|    0.831401|
|          56|  9.1638e+00|   -5.309623|   -5.575838|   -5.949318|   -5.502139|   -5.482417|  -13.263649|    0.804172|
|          57|  9.1689e+00|   -5.307261|   -5.568653|   -5.939676|   -5.500234|   -5.479556|  -13.252404|    0.782742|
|          58|  9.1722e+00|   -5.305166|   -5.564023|   -5.931383|   -5.497545|   -5.477151|  -13.240653|    0.767112|
|          59|  9.1785e+00|   -5.302828|   -5.561470|   -5.924429|   -5.493788|   -5.474558|  -13.230060|    0.757171|
|          60|  9.1834e+00|   -5.299968|   -5.560524|   -5.918807|   -5.489058|   -5.471340|  -13.221365|    0.752690|
|          61|  9.1876e+00|   -5.296539|   -5.560661|   -5.914489|   -5.483757|   -5.467336|  -13.214919|    0.753338|
|          62|  9.1916e+00|   -5.292690|   -5.561401|   -5.911426|   -5.478464|   -5.462674|  -13.210335|    0.758702|
|          63|  9.1960e+00|   -5.288802|   -5.562544|   -5.909526|   -5.473807|   -5.457831|  -13.206837|    0.768298|
|          64|  9.2001e+00|   -5.285373|   -5.564090|   -5.908629|   -5.470346|   -5.453482|  -13.203823|    0.781579|
|          65|  9.2038e+00|   -5.282832|   -5.566034|   -5.908523|   -5.468455|   -5.450262|  -13.200583|    0.797949|
|          66|  9.2069e+00|   -5.281434|   -5.568274|   -5.908981|   -5.468276|   -5.448578|  -13.196566|    0.816770|
|          67|  9.2109e+00|   -5.281258|   -5.570614|   -5.909812|   -5.469731|   -5.448560|  -13.191682|    0.837393|
|          68|  9.2166e+00|   -5.282249|   -5.572820|   -5.910902|   -5.472552|   -5.450090|  -13.187179|    0.859207|
|          69|  9.2197e+00|   -5.284256|   -5.574809|   -5.912235|   -5.476297|   -5.452860|  -13.183308|    0.881635|
|          70|  9.2198e+00|   -5.286999|   -5.576594|   -5.913886|   -5.480410|   -5.456417|  -13.180288|    0.904133|
|          71|  9.2225e+00|   -5.290219|   -5.578344|   -5.915977|   -5.484359|   -5.460370|  -13.177957|    0.926191|
|          72|  9.2242e+00|   -5.293727|   -5.580323|   -5.918610|   -5.487752|   -5.464465|  -13.176193|    0.947355|
|          73|  9.2245e+00|   -5.297399|   -5.582750|   -5.921826|   -5.490394|   -5.468583|  -13.174652|    0.967245|
|          74|  9.2239e+00|   -5.301142|   -5.585647|   -5.925582|   -5.492291|   -5.472694|  -13.172947|    0.985541|
|          75|  9.2242e+00|   -5.304883|   -5.588884|   -5.929767|   -5.493617|   -5.476811|  -13.171148|    1.001982|
|          76|  9.2248e+00|   -5.308581|   -5.592272|   -5.934232|   -5.494644|   -5.481005|  -13.169131|    1.016349|
|          77|  9.2263e+00|   -5.312238|   -5.595661|   -5.938816|   -5.495659|   -5.485375|  -13.167221|    1.028471|
|          78|  9.2256e+00|   -5.315914|   -5.599064|   -5.943391|   -5.496885|   -5.490015|  -13.166327|    1.038232|
|          79|  9.2276e+00|   -5.319696|   -5.602748|   -5.947883|   -5.498433|   -5.494961|  -13.166347|    1.045577|
|          80|  9.2293e+00|   -5.323603|   -5.606957|   -5.952279|   -5.500307|   -5.500106|  -13.166971|    1.050503|
|          81|  9.2347e+00|   -5.327564|   -5.611854|   -5.956630|   -5.502425|   -5.505208|  -13.167918|    1.053064|
|          82|  9.2370e+00|   -5.331469|   -5.617503|   -5.961050|   -5.504677|   -5.510027|  -13.169053|    1.053367|
|          83|  9.2387e+00|   -5.335217|   -5.623772|   -5.965686|   -5.506969|   -5.514433|  -13.170225|    1.051569|
|          84|  9.2427e+00|   -5.338748|   -5.630275|   -5.970658|   -5.509246|   -5.518445|  -13.171358|    1.047877|
|          85|  9.2462e+00|   -5.342064|   -5.636475|   -5.976005|   -5.511510|   -5.522205|  -13.172306|    1.042547|
|          86|  9.2477e+00|   -5.345213|   -5.641822|   -5.981663|   -5.513807|   -5.525888|  -13.173055|    1.035871|
|          87|  9.2496e+00|   -5.348277|   -5.645905|   -5.987493|   -5.516204|   -5.529663|  -13.173598|    1.028167|
|          88|  9.2529e+00|   -5.351371|   -5.648637|   -5.993311|   -5.518763|   -5.533673|  -13.174678|    1.019760|
|          89|  9.2565e+00|   -5.354642|   -5.650436|   -5.998934|   -5.521530|   -5.538044|  -13.176396|    1.010974|
|          90|  9.2585e+00|   -5.358180|   -5.651890|   -6.004220|   -5.524506|   -5.542803|  -13.178459|    1.002126|
|          91|  9.2603e+00|   -5.361995|   -5.653593|   -6.009080|   -5.527630|   -5.547877|  -13.180530|    0.993523|
|          92|  9.2618e+00|   -5.366029|   -5.656058|   -6.013494|   -5.530792|   -5.553123|  -13.182288|    0.985448|
|          93|  9.2626e+00|   -5.370140|   -5.659533|   -6.017496|   -5.533855|   -5.558329|  -13.183466|    0.978159|
|          94|  9.2650e+00|   -5.374114|   -5.663915|   -6.021170|   -5.536679|   -5.563232|  -13.183989|    0.971877|
|          95|  9.2652e+00|   -5.377730|   -5.668837|   -6.024627|   -5.539154|   -5.567583|  -13.183913|    0.966775|
|          96|  9.2648e+00|   -5.380807|   -5.673768|   -6.027992|   -5.541220|   -5.571200|  -13.183426|    0.962983|
|          97|  9.2672e+00|   -5.383264|   -5.678152|   -6.031387|   -5.542888|   -5.574034|  -13.182747|    0.960585|
|          98|  9.2680e+00|   -5.385142|   -5.681572|   -6.034904|   -5.544224|   -5.576180|  -13.181993|    0.959616|
|          99|  9.2681e+00|   -5.386615|   -5.683867|   -6.038598|   -5.545340|   -5.577881|  -13.181512|    0.960066|
|         100|  9.2683e+00|   -5.387933|   -5.685158|   -6.042457|   -5.546370|   -5.579457|  -13.182022|    0.961877|
|         101|  9.2682e+00|   -5.389418|   -5.685939|   -6.046416|   -5.547452|   -5.581295|  -13.183424|    0.964952|
|         102|  9.2691e+00|   -5.391307|   -5.686743|   -6.050351|   -5.548688|   -5.583675|  -13.185356|    0.969155|
|         103|  9.2691e+00|   -5.393733|   -5.688068|   -6.054110|   -5.550122|   -5.586749|  -13.187411|    0.974318|
|         104|  9.2691e+00|   -5.396684|   -5.690210|   -6.057532|   -5.551738|   -5.590496|  -13.189089|    0.980248|
|         105|  9.2681e+00|   -5.399959|   -5.693131|   -6.060474|   -5.553444|   -5.594666|  -13.189963|    0.986748|
|         106|  9.2694e+00|   -5.403207|   -5.696505|   -6.062836|   -5.555102|   -5.598831|  -13.189777|    0.993614|
|         107|  9.2722e+00|   -5.406024|   -5.699829|   -6.064589|   -5.556559|   -5.602489|  -13.188483|    1.000646|
|         108|  9.2733e+00|   -5.408041|   -5.702552|   -6.065763|   -5.557683|   -5.605184|  -13.186202|    1.007648|
|         109|  9.2746e+00|   -5.409027|   -5.704230|   -6.066456|   -5.558399|   -5.606625|  -13.183145|    1.014437|
|         110|  9.2750e+00|   -5.408930|   -5.704648|   -6.066786|   -5.558687|   -5.606746|  -13.179471|    1.020835|
|         111|  9.2770e+00|   -5.407885|   -5.703876|   -6.066880|   -5.558584|   -5.605715|  -13.175904|    1.026688|
|         112|  9.2787e+00|   -5.406206|   -5.702337|   -6.066841|   -5.558177|   -5.603913|  -13.173181|    1.031866|
|         113|  9.2795e+00|   -5.404295|   -5.700642|   -6.066738|   -5.557581|   -5.601822|  -13.171391|    1.036267|
|         114|  9.2807e+00|   -5.402514|   -5.699322|   -6.066599|   -5.556904|   -5.599883|  -13.170398|    1.039818|
|         115|  9.2829e+00|   -5.401152|   -5.698774|   -6.066416|   -5.556237|   -5.598440|  -13.169913|    1.042475|
|         116|  9.2833e+00|   -5.400370|   -5.699133|   -6.066155|   -5.555644|   -5.597685|  -13.169651|    1.044227|
|         117|  9.2848e+00|   -5.400176|   -5.700230|   -6.065767|   -5.555147|   -5.597635|  -13.169325|    1.045090|
|         118|  9.2856e+00|   -5.400453|   -5.701682|   -6.065201|   -5.554745|   -5.598163|  -13.168703|    1.045108|
|         119|  9.2896e+00|   -5.401003|   -5.703000|   -6.064423|   -5.554428|   -5.599039|  -13.167654|    1.044351|
|         120|  9.2915e+00|   -5.401592|   -5.703720|   -6.063412|   -5.554172|   -5.599985|  -13.166011|    1.042910|
|         121|  9.2929e+00|   -5.401994|   -5.703522|   -6.062176|   -5.553953|   -5.600735|  -13.163683|    1.040894|
|         122|  9.2954e+00|   -5.402034|   -5.702320|   -6.060736|   -5.553741|   -5.601065|  -13.160538|    1.038421|
|         123|  9.2963e+00|   -5.401612|   -5.700273|   -6.059134|   -5.553511|   -5.600834|  -13.157360|    1.035619|
|         124|  9.2974e+00|   -5.400767|   -5.697879|   -6.057426|   -5.553257|   -5.600061|  -13.154584|    1.032617|
|         125|  9.2989e+00|   -5.399609|   -5.695712|   -6.055668|   -5.552980|   -5.598852|  -13.152325|    1.029542|
|         126|  9.3003e+00|   -5.398282|   -5.694250|   -6.053931|   -5.552694|   -5.597362|  -13.150499|    1.026518|
|         127|  9.3015e+00|   -5.396935|   -5.693816|   -6.052281|   -5.552412|   -5.595755|  -13.148974|    1.023663|
|         128|  9.3020e+00|   -5.395682|   -5.694458|   -6.050792|   -5.552148|   -5.594165|  -13.147648|    1.021082|
|         129|  9.3038e+00|   -5.394579|   -5.695925|   -6.049535|   -5.551913|   -5.592682|  -13.146378|    1.018867|
|         130|  9.3045e+00|   -5.393644|   -5.697759|   -6.048570|   -5.551708|   -5.591362|  -13.145149|    1.017097|
|         131|  9.3067e+00|   -5.392889|   -5.699428|   -6.047944|   -5.551547|   -5.590270|  -13.144104|    1.015829|
|         132|  9.3081e+00|   -5.392344|   -5.700446|   -6.047671|   -5.551452|   -5.589496|  -13.143267|    1.015103|
|         133|  9.3102e+00|   -5.392042|   -5.700521|   -6.047720|   -5.551448|   -5.589122|  -13.142589|    1.014940|
|         134|  9.3114e+00|   -5.392030|   -5.699638|   -6.048027|   -5.551565|   -5.589224|  -13.141816|    1.015342|
|         135|  9.3128e+00|   -5.392332|   -5.697998|   -6.048500|   -5.551818|   -5.589815|  -13.141348|    1.016292|
|         136|  9.3136e+00|   -5.392973|   -5.696122|   -6.049039|   -5.552209|   -5.590879|  -13.141342|    1.017756|
|         137|  9.3145e+00|   -5.393935|   -5.694585|   -6.049544|   -5.552721|   -5.592342|  -13.141674|    1.019683|
|         138|  9.3158e+00|   -5.395132|   -5.693849|   -6.049942|   -5.553308|   -5.594053|  -13.142091|    1.022011|
|         139|  9.3170e+00|   -5.396439|   -5.694211|   -6.050187|   -5.553904|   -5.595813|  -13.142377|    1.024665|
|         140|  9.3182e+00|   -5.397685|   -5.695681|   -6.050271|   -5.554450|   -5.597385|  -13.142346|    1.027566|
|         141|  9.3193e+00|   -5.398674|   -5.697977|   -6.050232|   -5.554893|   -5.598530|  -13.141820|    1.030627|
|         142|  9.3207e+00|   -5.399235|   -5.700612|   -6.050132|   -5.555194|   -5.599050|  -13.140818|    1.033762|
|         143|  9.3222e+00|   -5.399276|   -5.703020|   -6.050062|   -5.555351|   -5.598865|  -13.139467|    1.036885|
|         144|  9.3230e+00|   -5.398809|   -5.704686|   -6.050118|   -5.555394|   -5.598030|  -13.137866|    1.039913|
|         145|  9.3246e+00|   -5.397957|   -5.705294|   -6.050379|   -5.555371|   -5.596744|  -13.136191|    1.042768|
|         146|  9.3260e+00|   -5.396938|   -5.704776|   -6.050898|   -5.555351|   -5.595312|  -13.134498|    1.045383|
|         147|  9.3266e+00|   -5.396003|   -5.703292|   -6.051673|   -5.555399|   -5.594070|  -13.133451|    1.047696|
|         148|  9.3268e+00|   -5.395446|   -5.701344|   -6.052651|   -5.555581|   -5.593391|  -13.133527|    1.049658|
|         149|  9.3272e+00|   -5.395513|   -5.699585|   -6.053732|   -5.555945|   -5.593556|  -13.134625|    1.051228|
|         150|  9.3284e+00|   -5.396295|   -5.698537|   -6.054793|   -5.556487|   -5.594651|  -13.136367|    1.052381|
+-----------------------------------------------------------------------+
|        File Writing Summary       |              Filename             |
+-----------------------------------------------------------------------+
|SU2 binary restart                 |restart_flow.dat                   |
|Paraview                           |flow.vtu                           |
|Paraview surface                   |surface_flow.vtu                   |
+-----------------------------------------------------------------------+
+--------------------------------------------------------------------------------------------------------------------+
|  Inner_Iter|   Time(sec)|    rms[Rho]|   rms[RhoU]|   rms[RhoV]|   rms[RhoW]|   rms[RhoE]|     rms[nu]|          CD|
+--------------------------------------------------------------------------------------------------------------------+
|         151|  9.4712e+00|   -5.397735|   -5.698554|   -6.055706|   -5.557165|   -5.596567|  -13.138293|    1.053105|
|         152|  9.4710e+00|   -5.399624|   -5.699709|   -6.056367|   -5.557900|   -5.599019|  -13.139921|    1.053397|
|         153|  9.4695e+00|   -5.401623|   -5.701763|   -6.056711|   -5.558578|   -5.601578|  -13.140874|    1.053269|
|         154|  9.4690e+00|   -5.403351|   -5.704263|   -6.056714|   -5.559091|   -5.603775|  -13.140949|    1.052744|
|         155|  9.4690e+00|   -5.404469|   -5.706644|   -6.056403|   -5.559358|   -5.605194|  -13.140118|    1.051854|
|         156|  9.4683e+00|   -5.404747|   -5.708361|   -6.055844|   -5.559343|   -5.605555|  -13.138445|    1.050637|
|         157|  9.4674e+00|   -5.404118|   -5.709028|   -6.055133|   -5.559060|   -5.604779|  -13.136101|    1.049141|
|         158|  9.4655e+00|   -5.402691|   -5.708493|   -6.054379|   -5.558571|   -5.603002|  -13.133225|    1.047417|
|         159|  9.4644e+00|   -5.400703|   -5.706826|   -6.053685|   -5.557961|   -5.600521|  -13.130139|    1.045520|
|         160|  9.4632e+00|   -5.398509|   -5.704381|   -6.053134|   -5.557341|   -5.597776|  -13.127715|    1.043504|
|         161|  9.4623e+00|   -5.396541|   -5.701817|   -6.052768|   -5.556821|   -5.595294|  -13.126278|    1.041425|
|         162|  9.4614e+00|   -5.395145|   -5.699707|   -6.052588|   -5.556481|   -5.593508|  -13.126034|    1.039339|
|         163|  9.4595e+00|   -5.394569|   -5.698494|   -6.052545|   -5.556368|   -5.592737|  -13.126895|    1.037296|
|         164|  9.4581e+00|   -5.394892|   -5.698406|   -6.052549|   -5.556480|   -5.593091|  -13.128422|    1.035346|
|         165|  9.4574e+00|   -5.395980|   -5.699347|   -6.052491|   -5.556756|   -5.594420|  -13.130087|    1.033532|
|         166|  9.4568e+00|   -5.397533|   -5.700975|   -6.052270|   -5.557100|   -5.596365|  -13.131372|    1.031892|
|         167|  9.4556e+00|   -5.399153|   -5.702801|   -6.051808|   -5.557397|   -5.598443|  -13.131926|    1.030461|
|         168|  9.4556e+00|   -5.400421|   -5.704301|   -6.051066|   -5.557539|   -5.600142|  -13.131519|    1.029262|
|         169|  9.4558e+00|   -5.401002|   -5.705044|   -6.050046|   -5.557453|   -5.601036|  -13.130093|    1.028316|
|         170|  9.4559e+00|   -5.400699|   -5.704783|   -6.048791|   -5.557112|   -5.600857|  -13.127690|    1.027633|
|         171|  9.4554e+00|   -5.399479|   -5.703458|   -6.047377|   -5.556536|   -5.599529|  -13.124378|    1.027216|
|         172|  9.4549e+00|   -5.397480|   -5.701237|   -6.045905|   -5.555791|   -5.597196|  -13.120882|    1.027063|
|         173|  9.4549e+00|   -5.395038|   -5.698621|   -6.044480|   -5.554985|   -5.594232|  -13.117833|    1.027163|
|         174|  9.4543e+00|   -5.392551|   -5.696189|   -6.043197|   -5.554226|   -5.591108|  -13.115534|    1.027501|
|         175|  9.4534e+00|   -5.390385|   -5.694397|   -6.042132|   -5.553604|   -5.588276|  -13.114094|    1.028055|
|         176|  9.4526e+00|   -5.388838|   -5.693564|   -6.041331|   -5.553181|   -5.586125|  -13.113509|    1.028800|
|         177|  9.4516e+00|   -5.388077|   -5.693751|   -6.040798|   -5.552976|   -5.584898|  -13.113845|    1.029708|
|         178|  9.4513e+00|   -5.388121|   -5.694754|   -6.040495|   -5.552963|   -5.584691|  -13.114896|    1.030748|
|         179|  9.4500e+00|   -5.388849|   -5.696198|   -6.040344|   -5.553084|   -5.585418|  -13.116269|    1.031888|
|         180|  9.4494e+00|   -5.390012|   -5.697613|   -6.040242|   -5.553257|   -5.586819|  -13.117505|    1.033094|
|         181|  9.4483e+00|   -5.391291|   -5.698546|   -6.040084|   -5.553387|   -5.588517|  -13.118169|    1.034335|
|         182|  9.4473e+00|   -5.392356|   -5.698681|   -6.039784|   -5.553398|   -5.590082|  -13.117975|    1.035577|
|         183|  9.4464e+00|   -5.392924|   -5.697879|   -6.039286|   -5.553236|   -5.591127|  -13.116738|    1.036791|
|         184|  9.4450e+00|   -5.392817|   -5.696177|   -6.038575|   -5.552883|   -5.591371|  -13.114511|    1.037949|
|         185|  9.4444e+00|   -5.392017|   -5.693872|   -6.037683|   -5.552368|   -5.590721|  -13.112050|    1.039027|
|         186|  9.4429e+00|   -5.390699|   -5.691528|   -6.036672|   -5.551761|   -5.589320|  -13.109771|    1.040002|
|         187|  9.4423e+00|   -5.389100|   -5.689635|   -6.035632|   -5.551145|   -5.587417|  -13.107890|    1.040858|
|         188|  9.4416e+00|   -5.387486|   -5.688560|   -6.034661|   -5.550599|   -5.585322|  -13.106494|    1.041580|
|         189|  9.4407e+00|   -5.386097|   -5.688481|   -6.033847|   -5.550183|   -5.583343|  -13.105570|    1.042158|
|         190|  9.4399e+00|   -5.385091|   -5.689294|   -6.033266|   -5.549922|   -5.581724|  -13.105034|    1.042586|
|         191|  9.4394e+00|   -5.384540|   -5.690687|   -6.032959|   -5.549807|   -5.580633|  -13.104912|    1.042863|
|         192|  9.4380e+00|   -5.384451|   -5.692236|   -6.032930|   -5.549812|   -5.580165|  -13.105383|    1.042990|
|         193|  9.4384e+00|   -5.384773|   -5.693496|   -6.033132|   -5.549891|   -5.580345|  -13.106220|    1.042972|
|         194|  9.4378e+00|   -5.385382|   -5.694108|   -6.033477|   -5.549990|   -5.581073|  -13.107065|    1.042820|
|         195|  9.4368e+00|   -5.386110|   -5.693860|   -6.033851|   -5.550047|   -5.582150|  -13.107531|    1.042543|
|         196|  9.4356e+00|   -5.386758|   -5.692698|   -6.034145|   -5.550010|   -5.583296|  -13.107211|    1.042155|
|         197|  9.4341e+00|   -5.387145|   -5.690765|   -6.034267|   -5.549840|   -5.584221|  -13.106357|    1.041673|
|         198|  9.4334e+00|   -5.387204|   -5.688520|   -6.034169|   -5.549538|   -5.584760|  -13.105339|    1.041113|
|         199|  9.4325e+00|   -5.386960|   -5.686507|   -6.033838|   -5.549131|   -5.584858|  -13.104349|    1.040493|
|         200|  9.4323e+00|   -5.386471|   -5.685155|   -6.033301|   -5.548659|   -5.584521|  -13.103483|    1.039832|
|         201|  9.4310e+00|   -5.385835|   -5.684744|   -6.032623|   -5.548174|   -5.583829|  -13.102727|    1.039149|
|         202|  9.4302e+00|   -5.385134|   -5.685307|   -6.031886|   -5.547721|   -5.582879|  -13.101992|    1.038461|
|         203|  9.4291e+00|   -5.384414|   -5.686597|   -6.031176|   -5.547324|   -5.581751|  -13.101224|    1.037785|
|         204|  9.4282e+00|   -5.383704|   -5.688205|   -6.030578|   -5.546995|   -5.580541|  -13.100436|    1.037139|
|         205|  9.4275e+00|   -5.383037|   -5.689653|   -6.030163|   -5.546737|   -5.579364|  -13.099645|    1.036536|
|         206|  9.4275e+00|   -5.382451|   -5.690512|   -6.029965|   -5.546540|   -5.578343|  -13.098970|    1.035990|
|         207|  9.4276e+00|   -5.381996|   -5.690514|   -6.029981|   -5.546395|   -5.577607|  -13.098578|    1.035513|
|         208|  9.4273e+00|   -5.381718|   -5.689572|   -6.030165|   -5.546287|   -5.577253|  -13.098266|    1.035112|
|         209|  9.4272e+00|   -5.381602|   -5.687758|   -6.030429|   -5.546188|   -5.577273|  -13.097766|    1.034796|
|         210|  9.4264e+00|   -5.381627|   -5.685381|   -6.030681|   -5.546072|   -5.577605|  -13.097389|    1.034568|
|         211|  9.4251e+00|   -5.381792|   -5.683009|   -6.030823|   -5.545921|   -5.578176|  -13.097250|    1.034431|
|         212|  9.4248e+00|   -5.382056|   -5.681153|   -6.030785|   -5.545719|   -5.578866|  -13.097294|    1.034384|
|         213|  9.4246e+00|   -5.382358|   -5.680185|   -6.030531|   -5.545458|   -5.579540|  -13.097381|    1.034425|
|         214|  9.4248e+00|   -5.382619|   -5.680279|   -6.030056|   -5.545135|   -5.580058|  -13.097363|    1.034549|
|         215|  9.4239e+00|   -5.382732|   -5.681319|   -6.029392|   -5.544749|   -5.580266|  -13.097047|    1.034749|
|         216|  9.4241e+00|   -5.382580|   -5.682947|   -6.028598|   -5.544300|   -5.580029|  -13.096300|    1.035016|
|         217|  9.4236e+00|   -5.382081|   -5.684679|   -6.027754|   -5.543800|   -5.579273|  -13.095150|    1.035340|
|         218|  9.4236e+00|   -5.381214|   -5.686004|   -6.026941|   -5.543270|   -5.578009|  -13.093630|    1.035710|
|         219|  9.4242e+00|   -5.380037|   -5.686517|   -6.026241|   -5.542740|   -5.576354|  -13.091830|    1.036114|
|         220|  9.4244e+00|   -5.378683|   -5.686010|   -6.025719|   -5.542244|   -5.574515|  -13.089864|    1.036539|
|         221|  9.4245e+00|   -5.377319|   -5.684471|   -6.025408|   -5.541809|   -5.572734|  -13.087836|    1.036973|
|         222|  9.4238e+00|   -5.376125|   -5.682097|   -6.025308|   -5.541454|   -5.571254|  -13.086198|    1.037404|
|         223|  9.4231e+00|   -5.375304|   -5.679386|   -6.025380|   -5.541189|   -5.570328|  -13.085312|    1.037818|
|         224|  9.4228e+00|   -5.375001|   -5.676942|   -6.025549|   -5.541007|   -5.570113|  -13.085181|    1.038206|
|         225|  9.4215e+00|   -5.375242|   -5.675239|   -6.025722|   -5.540872|   -5.570608|  -13.085617|    1.038555|
|         226|  9.4209e+00|   -5.375944|   -5.674589|   -6.025812|   -5.540736|   -5.571673|  -13.086307|    1.038859|
|         227|  9.4197e+00|   -5.376920|   -5.675055|   -6.025750|   -5.540543|   -5.573047|  -13.086886|    1.039109|
|         228|  9.4188e+00|   -5.377899|   -5.676400|   -6.025495|   -5.540235|   -5.574379|  -13.087031|    1.039298|
|         229|  9.4178e+00|   -5.378593|   -5.678187|   -6.025046|   -5.539766|   -5.575314|  -13.086564|    1.039424|
|         230|  9.4171e+00|   -5.378766|   -5.679885|   -6.024434|   -5.539121|   -5.575566|  -13.085367|    1.039483|
|         231|  9.4164e+00|   -5.378276|   -5.680985|   -6.023718|   -5.538311|   -5.574971|  -13.083456|    1.039474|
|         232|  9.4157e+00|   -5.377120|   -5.681126|   -6.022976|   -5.537380|   -5.573531|  -13.080913|    1.039399|
|         233|  9.4147e+00|   -5.375412|   -5.680143|   -6.022289|   -5.536385|   -5.571401|  -13.077854|    1.039260|
|         234|  9.4137e+00|   -5.373359|   -5.678072|   -6.021736|   -5.535386|   -5.568844|  -13.074407|    1.039060|
|         235|  9.4126e+00|   -5.371245|   -5.675213|   -6.021378|   -5.534436|   -5.566221|  -13.071238|    1.038807|
|         236|  9.4115e+00|   -5.369414|   -5.672171|   -6.021248|   -5.533578|   -5.563956|  -13.068824|    1.038506|
|         237|  9.4107e+00|   -5.368145|   -5.669541|   -6.021342|   -5.532822|   -5.562396|  -13.067400|    1.038166|
|         238|  9.4096e+00|   -5.367593|   -5.667767|   -6.021619|   -5.532138|   -5.561742|  -13.066875|    1.037793|
|         239|  9.4084e+00|   -5.367767|   -5.667092|   -6.021998|   -5.531465|   -5.562015|  -13.066916|    1.037399|
|         240|  9.4079e+00|   -5.368503|   -5.667463|   -6.022387|   -5.530715|   -5.563020|  -13.067082|    1.036991|
|         241|  9.4074e+00|   -5.369494|   -5.668555|   -6.022694|   -5.529785|   -5.564389|  -13.066958|    1.036579|
|         242|  9.4064e+00|   -5.370377|   -5.669888|   -6.022851|   -5.528590|   -5.565678|  -13.066255|    1.036172|
|         243|  9.4055e+00|   -5.370801|   -5.670927|   -6.022819|   -5.527077|   -5.566453|  -13.064753|    1.035779|
|         244|  9.4047e+00|   -5.370509|   -5.671201|   -6.022598|   -5.525239|   -5.566386|  -13.062359|    1.035408|
|         245|  9.4044e+00|   -5.369380|   -5.670402|   -6.022220|   -5.523101|   -5.565309|  -13.059096|    1.035067|
|         246|  9.4038e+00|   -5.367438|   -5.668415|   -6.021743|   -5.520726|   -5.563231|  -13.055036|    1.034762|
|         247|  9.4046e+00|   -5.364839|   -5.665328|   -6.021242|   -5.518189|   -5.560323|  -13.050446|    1.034498|
|         248|  9.4054e+00|   -5.361872|   -5.661528|   -6.020796|   -5.515571|   -5.556924|  -13.045930|    1.034280|
|         249|  9.4054e+00|   -5.358901|   -5.657609|   -6.020477|   -5.512940|   -5.553466|  -13.041882|    1.034111|
|         250|  9.4051e+00|   -5.356243|   -5.654099|   -6.020337|   -5.510327|   -5.550345|  -13.038541|    1.033992|
|         251|  9.4044e+00|   -5.354126|   -5.651384|   -6.020398|   -5.507725|   -5.547858|  -13.035898|    1.033925|
|         252|  9.4043e+00|   -5.352635|   -5.649625|   -6.020647|   -5.505083|   -5.546144|  -13.033842|    1.033907|
|         253|  9.4040e+00|   -5.351693|   -5.648691|   -6.021037|   -5.502312|   -5.545153|  -13.032104|    1.033939|
|         254|  9.4037e+00|   -5.351080|   -5.648223|   -6.021491|   -5.499307|   -5.544664|  -13.030373|    1.034015|
|         255|  9.4029e+00|   -5.350493|   -5.647753|   -6.021920|   -5.495970|   -5.544339|  -13.028335|    1.034132|
|         256|  9.4030e+00|   -5.349605|   -5.646809|   -6.022243|   -5.492228|   -5.543790|  -13.025737|    1.034285|
|         257|  9.4021e+00|   -5.348139|   -5.645011|   -6.022404|   -5.488052|   -5.542666|  -13.022424|    1.034467|
|         258|  9.4011e+00|   -5.345918|   -5.642149|   -6.022373|   -5.483461|   -5.540722|  -13.018334|    1.034673|
|         259|  9.4007e+00|   -5.342882|   -5.638173|   -6.022153|   -5.478505|   -5.537844|  -13.013456|    1.034896|
|         260|  9.4003e+00|   -5.339108|   -5.633234|   -6.021784|   -5.473264|   -5.534084|  -13.008112|    1.035129|
|         261|  9.4004e+00|   -5.334815|   -5.627744|   -6.021320|   -5.467831|   -5.529665|  -13.002746|    1.035365|
|         262|  9.4006e+00|   -5.330286|   -5.622197|   -6.020830|   -5.462289|   -5.524905|  -12.997631|    1.035597|
|         263|  9.4002e+00|   -5.325786|   -5.617003|   -6.020380|   -5.456699|   -5.520116|  -12.992912|    1.035819|
|         264|  9.3995e+00|   -5.321518|   -5.612428|   -6.020024|   -5.451085|   -5.515555|  -12.988639|    1.036025|
|         265|  9.3995e+00|   -5.317589|   -5.608542|   -6.019803|   -5.445438|   -5.511381|  -12.984777|    1.036209|
|         266|  9.3992e+00|   -5.313988|   -5.605185|   -6.019733|   -5.439715|   -5.507629|  -12.981168|    1.036369|
|         267|  9.3989e+00|   -5.310604|   -5.602051|   -6.019798|   -5.433854|   -5.504217|  -12.977700|    1.036499|
|         268|  9.3982e+00|   -5.307271|   -5.598781|   -6.019962|   -5.427792|   -5.500990|  -12.974238|    1.036597|
|         269|  9.3979e+00|   -5.303804|   -5.595041|   -6.020163|   -5.421480|   -5.497757|  -12.970605|    1.036661|
|         270|  9.3982e+00|   -5.300026|   -5.590597|   -6.020333|   -5.414893|   -5.494308|  -12.966658|    1.036691|
|         271|  9.3987e+00|   -5.295808|   -5.585349|   -6.020405|   -5.408034|   -5.490469|  -12.962288|    1.036686|
|         272|  9.3980e+00|   -5.291080|   -5.579317|   -6.020335|   -5.400935|   -5.486119|  -12.957425|    1.036647|
|         273|  9.3977e+00|   -5.285860|   -5.572675|   -6.020103|   -5.393654|   -5.481235|  -12.952312|    1.036576|
|         274|  9.3977e+00|   -5.280271|   -5.565775|   -6.019715|   -5.386265|   -5.475917|  -12.947209|    1.036476|
|         275|  9.3978e+00|   -5.274474|   -5.558971|   -6.019199|   -5.378840|   -5.470321|  -12.942279|    1.036349|
|         276|  9.3978e+00|   -5.268625|   -5.552533|   -6.018596|   -5.371440|   -5.464615|  -12.937594|    1.036199|
|         277|  9.3976e+00|   -5.262853|   -5.546616|   -6.017960|   -5.364108|   -5.458951|  -12.933175|    1.036029|
|         278|  9.3975e+00|   -5.257233|   -5.541220|   -6.017341|   -5.356866|   -5.453432|  -12.928980|    1.035845|
|         279|  9.3970e+00|   -5.251774|   -5.536200|   -6.016781|   -5.349714|   -5.448095|  -12.924991|    1.035650|
|         280|  9.3964e+00|   -5.246447|   -5.531338|   -6.016322|   -5.342638|   -5.442938|  -12.921180|    1.035449|
|         281|  9.3962e+00|   -5.241200|   -5.526407|   -6.015985|   -5.335616|   -5.437933|  -12.917452|    1.035246|
|         282|  9.3960e+00|   -5.235969|   -5.521214|   -6.015765|   -5.328625|   -5.433027|  -12.913734|    1.035045|
|         283|  9.3961e+00|   -5.230696|   -5.515640|   -6.015646|   -5.321651|   -5.428164|  -12.910004|    1.034851|
|         284|  9.3960e+00|   -5.225343|   -5.509650|   -6.015585|   -5.314686|   -5.423296|  -12.906188|    1.034666|
|         285|  9.3961e+00|   -5.219883|   -5.503286|   -6.015526|   -5.307737|   -5.418379|  -12.902212|    1.034495|
|         286|  9.3960e+00|   -5.214327|   -5.496694|   -6.015418|   -5.300824|   -5.413396|  -12.898238|    1.034340|
|         287|  9.3960e+00|   -5.208734|   -5.490123|   -6.015220|   -5.293979|   -5.408382|  -12.894390|    1.034202|
|         288|  9.3955e+00|   -5.203167|   -5.483804|   -6.014903|   -5.287240|   -5.403382|  -12.890725|    1.034084|
|         289|  9.3958e+00|   -5.197684|   -5.477905|   -6.014459|   -5.280640|   -5.398440|  -12.887260|    1.033987|
|         290|  9.3957e+00|   -5.192329|   -5.472511|   -6.013900|   -5.274210|   -5.393594|  -12.883972|    1.033911|
|         291|  9.3955e+00|   -5.187117|   -5.467593|   -6.013252|   -5.267969|   -5.388860|  -12.880814|    1.033856|
|         292|  9.3952e+00|   -5.182039|   -5.463030|   -6.012555|   -5.261925|   -5.384236|  -12.877762|    1.033822|
|         293|  9.3953e+00|   -5.177077|   -5.458663|   -6.011852|   -5.256080|   -5.379715|  -12.874791|    1.033808|
|         294|  9.3953e+00|   -5.172213|   -5.454337|   -6.011188|   -5.250430|   -5.375287|  -12.871903|    1.033812|
|         295|  9.3956e+00|   -5.167436|   -5.449928|   -6.010607|   -5.244965|   -5.370956|  -12.869084|    1.033832|
|         296|  9.3950e+00|   -5.162743|   -5.445367|   -6.010134|   -5.239675|   -5.366732|  -12.866302|    1.033865|
|         297|  9.3953e+00|   -5.158140|   -5.440639|   -6.009784|   -5.234549|   -5.362623|  -12.863516|    1.033910|
|         298|  9.3953e+00|   -5.153636|   -5.435776|   -6.009547|   -5.229578|   -5.358642|  -12.860734|    1.033964|
|         299|  9.3955e+00|   -5.149256|   -5.430882|   -6.009393|   -5.224757|   -5.354814|  -12.858101|    1.034024|
|         300|  9.3951e+00|   -5.145044|   -5.426129|   -6.009278|   -5.220088|   -5.351178|  -12.855693|    1.034087|
+-----------------------------------------------------------------------+
|        File Writing Summary       |              Filename             |
+-----------------------------------------------------------------------+
|SU2 binary restart                 |restart_flow.dat                   |
|Paraview                           |flow.vtu                           |
|Paraview surface                   |surface_flow.vtu                   |
+-----------------------------------------------------------------------+
+--------------------------------------------------------------------------------------------------------------------+
|  Inner_Iter|   Time(sec)|    rms[Rho]|   rms[RhoU]|   rms[RhoV]|   rms[RhoW]|   rms[RhoE]|     rms[nu]|          CD|
+--------------------------------------------------------------------------------------------------------------------+
|         301|  9.4674e+00|   -5.141029|   -5.421672|   -6.009148|   -5.215577|   -5.347758|  -12.853530|    1.034150|
|         302|  9.4665e+00|   -5.137226|   -5.417622|   -6.008954|   -5.211230|   -5.344553|  -12.851584|    1.034212|
|         303|  9.4660e+00|   -5.133630|   -5.414026|   -6.008661|   -5.207054|   -5.341545|  -12.849796|    1.034269|
|         304|  9.4652e+00|   -5.130213|   -5.410851|   -6.008245|   -5.203056|   -5.338690|  -12.848090|    1.034320|
|         305|  9.4651e+00|   -5.126933|   -5.407993|   -6.007710|   -5.199237|   -5.335933|  -12.846423|    1.034363|
|         306|  9.4646e+00|   -5.123748|   -5.405319|   -6.007074|   -5.195599|   -5.333225|  -12.844756|    1.034396|
|         307|  9.4638e+00|   -5.120628|   -5.402700|   -6.006373|   -5.192139|   -5.330535|  -12.843067|    1.034419|
|         308|  9.4630e+00|   -5.117558|   -5.400034|   -6.005648|   -5.188854|   -5.327852|  -12.841357|    1.034430|
|         309|  9.4623e+00|   -5.114544|   -5.397261|   -6.004945|   -5.185739|   -5.325190|  -12.839652|    1.034430|
|         310|  9.4614e+00|   -5.111602|   -5.394369|   -6.004306|   -5.182787|   -5.322574|  -12.837951|    1.034419|
|         311|  9.4603e+00|   -5.108757|   -5.391384|   -6.003766|   -5.179990|   -5.320042|  -12.836245|    1.034396|
|         312|  9.4595e+00|   -5.106044|   -5.388388|   -6.003341|   -5.177335|   -5.317640|  -12.834655|    1.034362|
|         313|  9.4589e+00|   -5.103508|   -5.385514|   -6.003023|   -5.174814|   -5.315423|  -12.833281|    1.034319|
|         314|  9.4578e+00|   -5.101182|   -5.382887|   -6.002788|   -5.172417|   -5.313433|  -12.832171|    1.034267|
|         315|  9.4569e+00|   -5.099079|   -5.380593|   -6.002593|   -5.170134|   -5.311686|  -12.831304|    1.034208|
|         316|  9.4559e+00|   -5.097189|   -5.378671|   -6.002384|   -5.167959|   -5.310170|  -12.830614|    1.034143|
|         317|  9.4548e+00|   -5.095474|   -5.377091|   -6.002115|   -5.165884|   -5.308833|  -12.830007|    1.034073|
|         318|  9.4535e+00|   -5.093880|   -5.375761|   -6.001749|   -5.163906|   -5.307605|  -12.829413|    1.034001|
|         319|  9.4527e+00|   -5.092346|   -5.374565|   -6.001262|   -5.162023|   -5.306408|  -12.828768|    1.033928|
|         320|  9.4525e+00|   -5.090822|   -5.373384|   -6.000653|   -5.160232|   -5.305178|  -12.828030|    1.033854|
|         321|  9.4521e+00|   -5.089279|   -5.372120|   -5.999942|   -5.158538|   -5.303879|  -12.827187|    1.033783|
|         322|  9.4516e+00|   -5.087707|   -5.370715|   -5.999163|   -5.156942|   -5.302500|  -12.826242|    1.033714|
|         323|  9.4511e+00|   -5.086119|   -5.369149|   -5.998356|   -5.155446|   -5.301060|  -12.825212|    1.033649|
|         324|  9.4508e+00|   -5.084543|   -5.367444|   -5.997565|   -5.154052|   -5.299597|  -12.824125|    1.033590|
|         325|  9.4504e+00|   -5.083022|   -5.365672|   -5.996827|   -5.152758|   -5.298165|  -12.823124|    1.033537|
|         326|  9.4499e+00|   -5.081610|   -5.363957|   -5.996173|   -5.151559|   -5.296838|  -12.822301|    1.033490|
|         327|  9.4494e+00|   -5.080354|   -5.362418|   -5.995617|   -5.150446|   -5.295675|  -12.821686|    1.033451|
|         328|  9.4488e+00|   -5.079276|   -5.361141|   -5.995153|   -5.149407|   -5.294709|  -12.821276|    1.033420|
|         329|  9.4478e+00|   -5.078382|   -5.360173|   -5.994760|   -5.148429|   -5.293951|  -12.821056|    1.033396|
|         330|  9.4471e+00|   -5.077647|   -5.359495|   -5.994404|   -5.147498|   -5.293379|  -12.820953|    1.033379|
|         331|  9.4461e+00|   -5.077024|   -5.359031|   -5.994041|   -5.146601|   -5.292936|  -12.820889|    1.033370|
|         332|  9.4451e+00|   -5.076453|   -5.358676|   -5.993632|   -5.145731|   -5.292551|  -12.820790|    1.033368|
|         333|  9.4439e+00|   -5.075878|   -5.358316|   -5.993141|   -5.144883|   -5.292150|  -12.820587|    1.033372|
|         334|  9.4431e+00|   -5.075251|   -5.357855|   -5.992546|   -5.144060|   -5.291673|  -12.820245|    1.033381|
|         335|  9.4422e+00|   -5.074548|   -5.357226|   -5.991850|   -5.143268|   -5.291081|  -12.819750|    1.033395|
|         336|  9.4413e+00|   -5.073765|   -5.356401|   -5.991069|   -5.142515|   -5.290367|  -12.819106|    1.033413|
|         337|  9.4400e+00|   -5.072920|   -5.355388|   -5.990232|   -5.141812|   -5.289549|  -12.818313|    1.033433|
|         338|  9.4388e+00|   -5.072048|   -5.354243|   -5.989371|   -5.141166|   -5.288672|  -12.817501|    1.033455|
|         339|  9.4376e+00|   -5.071208|   -5.353080|   -5.988522|   -5.140583|   -5.287808|  -12.816812|    1.033477|
|         340|  9.4370e+00|   -5.070456|   -5.352018|   -5.987713|   -5.140065|   -5.287027|  -12.816321|    1.033499|
|         341|  9.4360e+00|   -5.069832|   -5.351156|   -5.986968|   -5.139605|   -5.286383|  -12.816044|    1.033520|
|         342|  9.4350e+00|   -5.069358|   -5.350556|   -5.986303|   -5.139195|   -5.285907|  -12.815937|    1.033539|
|         343|  9.4342e+00|   -5.069025|   -5.350219|   -5.985716|   -5.138817|   -5.285595|  -12.815930|    1.033555|
|         344|  9.4331e+00|   -5.068798|   -5.350091|   -5.985197|   -5.138454|   -5.285411|  -12.815985|    1.033567|
|         345|  9.4321e+00|   -5.068632|   -5.350079|   -5.984726|   -5.138091|   -5.285307|  -12.816051|    1.033576|
|         346|  9.4320e+00|   -5.068474|   -5.350079|   -5.984270|   -5.137716|   -5.285225|  -12.816064|    1.033580|
|         347|  9.4315e+00|   -5.068277|   -5.349991|   -5.983795|   -5.137323|   -5.285108|  -12.815969|    1.033579|
|         348|  9.4308e+00|   -5.068005|   -5.349739|   -5.983270|   -5.136914|   -5.284907|  -12.815733|    1.033573|
|         349|  9.4302e+00|   -5.067640|   -5.349285|   -5.982675|   -5.136498|   -5.284595|  -12.815338|    1.033563|
|         350|  9.4291e+00|   -5.067182|   -5.348621|   -5.982009|   -5.136087|   -5.284162|  -12.814770|    1.033548|
|         351|  9.4284e+00|   -5.066650|   -5.347780|   -5.981275|   -5.135693|   -5.283625|  -12.814088|    1.033528|
|         352|  9.4277e+00|   -5.066086|   -5.346848|   -5.980492|   -5.135331|   -5.283033|  -12.813426|    1.033504|
|         353|  9.4269e+00|   -5.065547|   -5.345943|   -5.979681|   -5.135012|   -5.282449|  -12.812884|    1.033476|
|         354|  9.4259e+00|   -5.065080|   -5.345169|   -5.978864|   -5.134742|   -5.281936|  -12.812530|    1.033445|
|         355|  9.4254e+00|   -5.064721|   -5.344607|   -5.978065|   -5.134520|   -5.281538|  -12.812373|    1.033410|
|         356|  9.4250e+00|   -5.064482|   -5.344289|   -5.977305|   -5.134338|   -5.281273|  -12.812364|    1.033372|
|         357|  9.4246e+00|   -5.064346|   -5.344187|   -5.976603|   -5.134180|   -5.281129|  -12.812434|    1.033332|
|         358|  9.4237e+00|   -5.064279|   -5.344230|   -5.975967|   -5.134030|   -5.281067|  -12.812515|    1.033291|
|         359|  9.4234e+00|   -5.064234|   -5.344325|   -5.975397|   -5.133870|   -5.281040|  -12.812559|    1.033247|
|         360|  9.4231e+00|   -5.064169|   -5.344376|   -5.974886|   -5.133685|   -5.281002|  -12.812545|    1.033203|
|         361|  9.4222e+00|   -5.064052|   -5.344301|   -5.974413|   -5.133470|   -5.280918|  -12.812440|    1.033158|
|         362|  9.4213e+00|   -5.063858|   -5.344046|   -5.973953|   -5.133224|   -5.280760|  -12.812220|    1.033113|
|         363|  9.4205e+00|   -5.063580|   -5.343586|   -5.973475|   -5.132954|   -5.280512|  -12.811865|    1.033067|
|         364|  9.4196e+00|   -5.063224|   -5.342933|   -5.972960|   -5.132672|   -5.280176|  -12.811365|    1.033022|
|         365|  9.4186e+00|   -5.062812|   -5.342139|   -5.972393|   -5.132394|   -5.279770|  -12.810817|    1.032978|
|         366|  9.4179e+00|   -5.062387|   -5.341302|   -5.971769|   -5.132136|   -5.279337|  -12.810323|    1.032935|
|         367|  9.4173e+00|   -5.061993|   -5.340528|   -5.971094|   -5.131913|   -5.278926|  -12.809947|    1.032892|
|         368|  9.4164e+00|   -5.061669|   -5.339905|   -5.970375|   -5.131733|   -5.278582|  -12.809728|    1.032851|
|         369|  9.4153e+00|   -5.061442|   -5.339493|   -5.969629|   -5.131598|   -5.278340|  -12.809679|    1.032811|
|         370|  9.4146e+00|   -5.061317|   -5.339305|   -5.968876|   -5.131506|   -5.278207|  -12.809760|    1.032772|
|         371|  9.4139e+00|   -5.061271|   -5.339299|   -5.968137|   -5.131444|   -5.278164|  -12.809914|    1.032735|
|         372|  9.4135e+00|   -5.061272|   -5.339403|   -5.967434|   -5.131396|   -5.278172|  -12.810078|    1.032699|
|         373|  9.4131e+00|   -5.061277|   -5.339529|   -5.966782|   -5.131345|   -5.278187|  -12.810190|    1.032664|
|         374|  9.4126e+00|   -5.061249|   -5.339593|   -5.966192|   -5.131277|   -5.278169|  -12.810204|    1.032631|
|         375|  9.4117e+00|   -5.061160|   -5.339526|   -5.965666|   -5.131180|   -5.278088|  -12.810124|    1.032600|
|         376|  9.4110e+00|   -5.060999|   -5.339287|   -5.965196|   -5.131052|   -5.277936|  -12.809948|    1.032570|
|         377|  9.4104e+00|   -5.060765|   -5.338860|   -5.964762|   -5.130896|   -5.277711|  -12.809659|    1.032541|
|         378|  9.4098e+00|   -5.060471|   -5.338264|   -5.964338|   -5.130721|   -5.277426|  -12.809273|    1.032513|
|         379|  9.4090e+00|   -5.060144|   -5.337560|   -5.963901|   -5.130543|   -5.277107|  -12.808885|    1.032487|
|         380|  9.4085e+00|   -5.059823|   -5.336842|   -5.963427|   -5.130376|   -5.276794|  -12.808572|    1.032462|
|         381|  9.4075e+00|   -5.059545|   -5.336202|   -5.962905|   -5.130237|   -5.276524|  -12.808379|    1.032438|
|         382|  9.4069e+00|   -5.059340|   -5.335716|   -5.962328|   -5.130135|   -5.276329|  -12.808324|    1.032415|
|         383|  9.4068e+00|   -5.059226|   -5.335430|   -5.961698|   -5.130078|   -5.276229|  -12.808399|    1.032393|
|         384|  9.4063e+00|   -5.059202|   -5.335347|   -5.961026|   -5.130066|   -5.276224|  -12.808589|    1.032372|
|         385|  9.4058e+00|   -5.059248|   -5.335425|   -5.960330|   -5.130090|   -5.276296|  -12.808853|    1.032352|
|         386|  9.4053e+00|   -5.059333|   -5.335599|   -5.959630|   -5.130141|   -5.276407|  -12.809134|    1.032334|
|         387|  9.4050e+00|   -5.059419|   -5.335792|   -5.958948|   -5.130201|   -5.276516|  -12.809376|    1.032316|
|         388|  9.4049e+00|   -5.059473|   -5.335929|   -5.958307|   -5.130258|   -5.276586|  -12.809532|    1.032300|
|         389|  9.4043e+00|   -5.059467|   -5.335952|   -5.957724|   -5.130299|   -5.276588|  -12.809567|    1.032285|
|         390|  9.4033e+00|   -5.059390|   -5.335823|   -5.957208|   -5.130316|   -5.276509|  -12.809483|    1.032271|
|         391|  9.4027e+00|   -5.059244|   -5.335531|   -5.956761|   -5.130307|   -5.276355|  -12.809294|    1.032258|
|         392|  9.4024e+00|   -5.059045|   -5.335091|   -5.956370|   -5.130278|   -5.276150|  -12.809027|    1.032247|
|         393|  9.4017e+00|   -5.058822|   -5.334559|   -5.956012|   -5.130237|   -5.275925|  -12.808777|    1.032236|
|         394|  9.4010e+00|   -5.058614|   -5.334018|   -5.955661|   -5.130198|   -5.275725|  -12.808608|    1.032227|
|         395|  9.4007e+00|   -5.058454|   -5.333549|   -5.955290|   -5.130176|   -5.275584|  -12.808562|    1.032218|
|         396|  9.4000e+00|   -5.058369|   -5.333220|   -5.954881|   -5.130182|   -5.275527|  -12.808646|    1.032210|
|         397|  9.3994e+00|   -5.058372|   -5.333071|   -5.954420|   -5.130225|   -5.275568|  -12.808846|    1.032203|
|         398|  9.3989e+00|   -5.058460|   -5.333104|   -5.953905|   -5.130311|   -5.275701|  -12.809134|    1.032196|
|         399|  9.3980e+00|   -5.058616|   -5.333285|   -5.953340|   -5.130437|   -5.275906|  -12.809494|    1.032189|
|         400|  9.3978e+00|   -5.058813|   -5.333559|   -5.952742|   -5.130596|   -5.276154|  -12.809887|    1.032183|
|         401|  9.3968e+00|   -5.059018|   -5.333861|   -5.952128|   -5.130779|   -5.276407|  -12.810265|    1.032176|
|         402|  9.3962e+00|   -5.059198|   -5.334126|   -5.951522|   -5.130975|   -5.276626|  -12.810580|    1.032169|
|         403|  9.3955e+00|   -5.059329|   -5.334298|   -5.950951|   -5.131170|   -5.276782|  -12.810797|    1.032161|
|         404|  9.3951e+00|   -5.059395|   -5.334345|   -5.950437|   -5.131356|   -5.276857|  -12.810891|    1.032153|
|         405|  9.3943e+00|   -5.059393|   -5.334250|   -5.949994|   -5.131526|   -5.276849|  -12.810848|    1.032144|
|         406|  9.3936e+00|   -5.059335|   -5.334024|   -5.949629|   -5.131679|   -5.276776|  -12.810702|    1.032133|
|         407|  9.3929e+00|   -5.059249|   -5.333708|   -5.949340|   -5.131818|   -5.276673|  -12.810552|    1.032121|
|         408|  9.3926e+00|   -5.059173|   -5.333371|   -5.949104|   -5.131951|   -5.276589|  -12.810474|    1.032108|
|         409|  9.3922e+00|   -5.059143|   -5.333088|   -5.948895|   -5.132091|   -5.276566|  -12.810514|    1.032094|
|         410|  9.3912e+00|   -5.059186|   -5.332922|   -5.948684|   -5.132246|   -5.276634|  -12.810686|    1.032078|
|         411|  9.3905e+00|   -5.059318|   -5.332915|   -5.948443|   -5.132427|   -5.276809|  -12.810973|    1.032060|
|         412|  9.3903e+00|   -5.059539|   -5.333077|   -5.948154|   -5.132640|   -5.277086|  -12.811344|    1.032041|
|         413|  9.3895e+00|   -5.059831|   -5.333384|   -5.947804|   -5.132886|   -5.277445|  -12.811768|    1.032021|
|         414|  9.3889e+00|   -5.060169|   -5.333791|   -5.947393|   -5.133163|   -5.277854|  -12.812221|    1.031999|
|         415|  9.3883e+00|   -5.060522|   -5.334239|   -5.946931|   -5.133465|   -5.278278|  -12.812672|    1.031976|
|         416|  9.3882e+00|   -5.060859|   -5.334667|   -5.946435|   -5.133782|   -5.278679|  -12.813079|    1.031953|
|         417|  9.3879e+00|   -5.061147|   -5.335021|   -5.945925|   -5.134103|   -5.279020|  -12.813402|    1.031928|
|         418|  9.3875e+00|   -5.061367|   -5.335260|   -5.945430|   -5.134418|   -5.279274|  -12.813612|    1.031903|
|         419|  9.3869e+00|   -5.061505|   -5.335362|   -5.944976|   -5.134716|   -5.279427|  -12.813692|    1.031877|
|         420|  9.3865e+00|   -5.061564|   -5.335324|   -5.944585|   -5.134993|   -5.279482|  -12.813626|    1.031851|
|         421|  9.3862e+00|   -5.061561|   -5.335168|   -5.944269|   -5.135246|   -5.279461|  -12.813460|    1.031826|
|         422|  9.3855e+00|   -5.061529|   -5.334947|   -5.944036|   -5.135479|   -5.279405|  -12.813315|    1.031800|
|         423|  9.3848e+00|   -5.061510|   -5.334730|   -5.943873|   -5.135701|   -5.279371|  -12.813268|    1.031775|
|         424|  9.3844e+00|   -5.061541|   -5.334581|   -5.943759|   -5.135922|   -5.279403|  -12.813361|    1.031750|
|         425|  9.3837e+00|   -5.061650|   -5.334558|   -5.943664|   -5.136154|   -5.279536|  -12.813602|    1.031727|
|         426|  9.3833e+00|   -5.061854|   -5.334690|   -5.943562|   -5.136407|   -5.279784|  -12.813972|    1.031704|
|         427|  9.3827e+00|   -5.062149|   -5.334981|   -5.943427|   -5.136692|   -5.280142|  -12.814441|    1.031682|
|         428|  9.3822e+00|   -5.062522|   -5.335403|   -5.943245|   -5.137013|   -5.280589|  -12.814972|    1.031662|
|         429|  9.3817e+00|   -5.062948|   -5.335914|   -5.943009|   -5.137372|   -5.281094|  -12.815540|    1.031643|
|         430|  9.3810e+00|   -5.063400|   -5.336462|   -5.942725|   -5.137767|   -5.281624|  -12.816118|    1.031626|
|         431|  9.3803e+00|   -5.063850|   -5.336996|   -5.942403|   -5.138192|   -5.282144|  -12.816672|    1.031609|
|         432|  9.3799e+00|   -5.064271|   -5.337469|   -5.942061|   -5.138639|   -5.282622|  -12.817159|    1.031594|
|         433|  9.3794e+00|   -5.064642|   -5.337846|   -5.941724|   -5.139097|   -5.283030|  -12.817548|    1.031581|
|         434|  9.3790e+00|   -5.064950|   -5.338109|   -5.941418|   -5.139557|   -5.283351|  -12.817819|    1.031568|
|         435|  9.3784e+00|   -5.065194|   -5.338253|   -5.941165|   -5.140011|   -5.283585|  -12.817951|    1.031557|
|         436|  9.3780e+00|   -5.065384|   -5.338296|   -5.940981|   -5.140451|   -5.283746|  -12.817961|    1.031546|
|         437|  9.3779e+00|   -5.065546|   -5.338279|   -5.940875|   -5.140874|   -5.283868|  -12.817940|    1.031536|
|         438|  9.3778e+00|   -5.065713|   -5.338260|   -5.940841|   -5.141283|   -5.283998|  -12.817976|    1.031526|
|         439|  9.3775e+00|   -5.065919|   -5.338295|   -5.940861|   -5.141680|   -5.284182|  -12.818112|    1.031516|
|         440|  9.3771e+00|   -5.066187|   -5.338430|   -5.940906|   -5.142070|   -5.284451|  -12.818363|    1.031506|
|         441|  9.3767e+00|   -5.066529|   -5.338690|   -5.940946|   -5.142459|   -5.284819|  -12.818710|    1.031496|
|         442|  9.3761e+00|   -5.066941|   -5.339078|   -5.940948|   -5.142852|   -5.285280|  -12.819128|    1.031484|
|         443|  9.3754e+00|   -5.067405|   -5.339571|   -5.940892|   -5.143250|   -5.285812|  -12.819580|    1.031472|
|         444|  9.3747e+00|   -5.067896|   -5.340130|   -5.940765|   -5.143654|   -5.286381|  -12.820038|    1.031459|
|         445|  9.3743e+00|   -5.068387|   -5.340710|   -5.940566|   -5.144064|   -5.286954|  -12.820482|    1.031444|
|         446|  9.3738e+00|   -5.068848|   -5.341263|   -5.940304|   -5.144475|   -5.287493|  -12.820890|    1.031427|
|         447|  9.3731e+00|   -5.069255|   -5.341748|   -5.939996|   -5.144884|   -5.287969|  -12.821231|    1.031409|
|         448|  9.3726e+00|   -5.069589|   -5.342133|   -5.939668|   -5.145285|   -5.288354|  -12.821479|    1.031389|
|         449|  9.3720e+00|   -5.069838|   -5.342397|   -5.939348|   -5.145674|   -5.288630|  -12.821620|    1.031367|
|         450|  9.3716e+00|   -5.070003|   -5.342538|   -5.939067|   -5.146046|   -5.288797|  -12.821644|    1.031343|
+-----------------------------------------------------------------------+
|        File Writing Summary       |              Filename             |
+-----------------------------------------------------------------------+
|SU2 binary restart                 |restart_flow.dat                   |
|Paraview                           |flow.vtu                           |
|Paraview surface                   |surface_flow.vtu                   |
+-----------------------------------------------------------------------+
+--------------------------------------------------------------------------------------------------------------------+
|  Inner_Iter|   Time(sec)|    rms[Rho]|   rms[RhoU]|   rms[RhoV]|   rms[RhoW]|   rms[RhoE]|     rms[nu]|          CD|
+--------------------------------------------------------------------------------------------------------------------+
|         451|  9.4200e+00|   -5.070095|   -5.342568|   -5.938851|   -5.146401|   -5.288868|  -12.821559|    1.031317|
|         452|  9.4196e+00|   -5.070141|   -5.342521|   -5.938719|   -5.146741|   -5.288876|  -12.821420|    1.031289|
|         453|  9.4190e+00|   -5.070179|   -5.342449|   -5.938681|   -5.147071|   -5.288868|  -12.821328|    1.031260|
|         454|  9.4187e+00|   -5.070250|   -5.342408|   -5.938731|   -5.147400|   -5.288901|  -12.821358|    1.031229|
|         455|  9.4183e+00|   -5.070390|   -5.342448|   -5.938852|   -5.147739|   -5.289022|  -12.821539|    1.031197|
|         456|  9.4175e+00|   -5.070626|   -5.342609|   -5.939015|   -5.148096|   -5.289264|  -12.821875|    1.031164|
|         457|  9.4170e+00|   -5.070968|   -5.342908|   -5.939188|   -5.148481|   -5.289638|  -12.822344|    1.031130|
|         458|  9.4164e+00|   -5.071411|   -5.343341|   -5.939340|   -5.148901|   -5.290138|  -12.822912|    1.031095|
|         459|  9.4157e+00|   -5.071938|   -5.343886|   -5.939448|   -5.149357|   -5.290739|  -12.823543|    1.031061|
|         460|  9.4153e+00|   -5.072524|   -5.344508|   -5.939498|   -5.149851|   -5.291409|  -12.824203|    1.031026|
|         461|  9.4150e+00|   -5.073137|   -5.345164|   -5.939484|   -5.150376|   -5.292109|  -12.824870|    1.030992|
|         462|  9.4142e+00|   -5.073747|   -5.345815|   -5.939413|   -5.150924|   -5.292802|  -12.825508|    1.030958|
|         463|  9.4137e+00|   -5.074324|   -5.346420|   -5.939297|   -5.151487|   -5.293451|  -12.826077|    1.030926|
|         464|  9.4133e+00|   -5.074843|   -5.346951|   -5.939155|   -5.152050|   -5.294022|  -12.826542|    1.030894|
|         465|  9.4126e+00|   -5.075284|   -5.347385|   -5.939015|   -5.152604|   -5.294491|  -12.826884|    1.030865|
|         466|  9.4119e+00|   -5.075640|   -5.347716|   -5.938901|   -5.153137|   -5.294847|  -12.827088|    1.030836|
|         467|  9.4113e+00|   -5.075917|   -5.347949|   -5.938835|   -5.153643|   -5.295099|  -12.827156|    1.030810|
|         468|  9.4106e+00|   -5.076133|   -5.348108|   -5.938838|   -5.154118|   -5.295272|  -12.827125|    1.030786|
|         469|  9.4098e+00|   -5.076319|   -5.348231|   -5.938919|   -5.154564|   -5.295408|  -12.827096|    1.030764|
|         470|  9.4090e+00|   -5.076513|   -5.348365|   -5.939074|   -5.154988|   -5.295558|  -12.827139|    1.030744|
|         471|  9.4085e+00|   -5.076748|   -5.348555|   -5.939288|   -5.155398|   -5.295768|  -12.827294|    1.030727|
|         472|  9.4080e+00|   -5.077049|   -5.348834|   -5.939536|   -5.155805|   -5.296069|  -12.827572|    1.030712|
|         473|  9.4073e+00|   -5.077430|   -5.349221|   -5.939792|   -5.156219|   -5.296476|  -12.827968|    1.030698|
|         474|  9.4072e+00|   -5.077890|   -5.349720|   -5.940027|   -5.156651|   -5.296988|  -12.828459|    1.030687|
|         475|  9.4067e+00|   -5.078420|   -5.350314|   -5.940224|   -5.157107|   -5.297588|  -12.829019|    1.030678|
|         476|  9.4063e+00|   -5.079000|   -5.350977|   -5.940369|   -5.157592|   -5.298250|  -12.829624|    1.030670|
|         477|  9.4054e+00|   -5.079606|   -5.351672|   -5.940460|   -5.158106|   -5.298943|  -12.830252|    1.030663|
|         478|  9.4047e+00|   -5.080213|   -5.352362|   -5.940504|   -5.158645|   -5.299633|  -12.830864|    1.030657|
|         479|  9.4042e+00|   -5.080795|   -5.353008|   -5.940511|   -5.159203|   -5.300287|  -12.831419|    1.030653|
|         480|  9.4037e+00|   -5.081327|   -5.353578|   -5.940502|   -5.159770|   -5.300873|  -12.831883|    1.030648|
|         481|  9.4028e+00|   -5.081792|   -5.354048|   -5.940498|   -5.160339|   -5.301365|  -12.832231|    1.030644|
|         482|  9.4022e+00|   -5.082183|   -5.354403|   -5.940521|   -5.160898|   -5.301755|  -12.832449|    1.030639|
|         483|  9.4014e+00|   -5.082501|   -5.354643|   -5.940591|   -5.161441|   -5.302047|  -12.832531|    1.030634|
|         484|  9.4005e+00|   -5.082761|   -5.354780|   -5.940720|   -5.161962|   -5.302260|  -12.832495|    1.030627|
|         485|  9.3998e+00|   -5.082985|   -5.354845|   -5.940916|   -5.162461|   -5.302430|  -12.832422|    1.030620|
|         486|  9.3996e+00|   -5.083206|   -5.354877|   -5.941168|   -5.162939|   -5.302601|  -12.832381|    1.030611|
|         487|  9.3990e+00|   -5.083454|   -5.354925|   -5.941457|   -5.163401|   -5.302815|  -12.832416|    1.030600|
|         488|  9.3988e+00|   -5.083751|   -5.355032|   -5.941757|   -5.163854|   -5.303102|  -12.832548|    1.030587|
|         489|  9.3984e+00|   -5.084111|   -5.355234|   -5.942036|   -5.164302|   -5.303478|  -12.832779|    1.030572|
|         490|  9.3980e+00|   -5.084537|   -5.355555|   -5.942268|   -5.164754|   -5.303943|  -12.833097|    1.030555|
|         491|  9.3971e+00|   -5.085022|   -5.356003|   -5.942436|   -5.165213|   -5.304486|  -12.833488|    1.030536|
|         492|  9.3967e+00|   -5.085552|   -5.356574|   -5.942531|   -5.165684|   -5.305086|  -12.833940|    1.030514|
|         493|  9.3960e+00|   -5.086109|   -5.357247|   -5.942556|   -5.166165|   -5.305718|  -12.834438|    1.030490|
|         494|  9.3955e+00|   -5.086669|   -5.357993|   -5.942525|   -5.166654|   -5.306353|  -12.834957|    1.030464|
|         495|  9.3951e+00|   -5.087210|   -5.358778|   -5.942460|   -5.167149|   -5.306960|  -12.835467|    1.030436|
|         496|  9.3949e+00|   -5.087712|   -5.359566|   -5.942388|   -5.167643|   -5.307511|  -12.835939|    1.030405|
|         497|  9.3942e+00|   -5.088157|   -5.360320|   -5.942342|   -5.168131|   -5.307984|  -12.836356|    1.030373|
|         498|  9.3938e+00|   -5.088540|   -5.361013|   -5.942352|   -5.168609|   -5.308369|  -12.836707|    1.030340|
|         499|  9.3934e+00|   -5.088864|   -5.361621|   -5.942446|   -5.169075|   -5.308671|  -12.836984|    1.030305|
|         500|  9.3929e+00|   -5.089140|   -5.362131|   -5.942641|   -5.169530|   -5.308907|  -12.837187|    1.030269|
|         501|  9.3926e+00|   -5.089391|   -5.362543|   -5.942950|   -5.169979|   -5.309108|  -12.837362|    1.030233|
|         502|  9.3921e+00|   -5.089645|   -5.362866|   -5.943368|   -5.170429|   -5.309314|  -12.837547|    1.030196|
|         503|  9.3916e+00|   -5.089932|   -5.363123|   -5.943878|   -5.170890|   -5.309567|  -12.837778|    1.030160|
|         504|  9.3915e+00|   -5.090279|   -5.363348|   -5.944448|   -5.171373|   -5.309900|  -12.838081|    1.030123|
|         505|  9.3916e+00|   -5.090705|   -5.363576|   -5.945042|   -5.171886|   -5.310334|  -12.838472|    1.030087|
|         506|  9.3911e+00|   -5.091220|   -5.363844|   -5.945625|   -5.172439|   -5.310879|  -12.838953|    1.030052|
|         507|  9.3908e+00|   -5.091825|   -5.364180|   -5.946164|   -5.173037|   -5.311532|  -12.839516|    1.030018|
|         508|  9.3907e+00|   -5.092512|   -5.364605|   -5.946634|   -5.173681|   -5.312279|  -12.840152|    1.029985|
|         509|  9.3902e+00|   -5.093265|   -5.365127|   -5.947020|   -5.174368|   -5.313100|  -12.840846|    1.029954|
|         510|  9.3896e+00|   -5.094061|   -5.365742|   -5.947315|   -5.175088|   -5.313966|  -12.841564|    1.029924|
|         511|  9.3890e+00|   -5.094870|   -5.366434|   -5.947522|   -5.175830|   -5.314840|  -12.842264|    1.029896|
|         512|  9.3887e+00|   -5.095661|   -5.367176|   -5.947654|   -5.176576|   -5.315682|  -12.842902|    1.029870|
|         513|  9.3883e+00|   -5.096402|   -5.367938|   -5.947732|   -5.177309|   -5.316453|  -12.843443|    1.029846|
|         514|  9.3881e+00|   -5.097067|   -5.368685|   -5.947781|   -5.178011|   -5.317122|  -12.843856|    1.029823|
|         515|  9.3880e+00|   -5.097640|   -5.369389|   -5.947827|   -5.178668|   -5.317672|  -12.844132|    1.029802|
|         516|  9.3876e+00|   -5.098115|   -5.370023|   -5.947897|   -5.179269|   -5.318100|  -12.844266|    1.029783|
|         517|  9.3873e+00|   -5.098498|   -5.370569|   -5.948010|   -5.179810|   -5.318420|  -12.844288|    1.029765|
|         518|  9.3855e+00|   -5.098802|   -5.371017|   -5.948179|   -5.180292|   -5.318656|  -12.844255|    1.029748|
|         519|  9.3837e+00|   -5.099052|   -5.371369|   -5.948403|   -5.180720|   -5.318843|  -12.844192|    1.029733|
|         520|  9.3820e+00|   -5.099269|   -5.371636|   -5.948671|   -5.181105|   -5.319012|  -12.844122|    1.029718|
|         521|  9.3799e+00|   -5.099477|   -5.371838|   -5.948965|   -5.181461|   -5.319191|  -12.844059|    1.029703|
|         522|  9.3781e+00|   -5.099694|   -5.372006|   -5.949263|   -5.181805|   -5.319399|  -12.844029|    1.029689|
|         523|  9.3761e+00|   -5.099940|   -5.372179|   -5.949546|   -5.182152|   -5.319650|  -12.844055|    1.029675|
|         524|  9.3743e+00|   -5.100226|   -5.372394|   -5.949803|   -5.182518|   -5.319956|  -12.844164|    1.029660|
|         525|  9.3727e+00|   -5.100565|   -5.372685|   -5.950026|   -5.182914|   -5.320324|  -12.844381|    1.029645|
|         526|  9.3708e+00|   -5.100963|   -5.373077|   -5.950217|   -5.183350|   -5.320757|  -12.844714|    1.029629|
|         527|  9.3688e+00|   -5.101420|   -5.373586|   -5.950385|   -5.183829|   -5.321250|  -12.845155|    1.029611|
|         528|  9.3669e+00|   -5.101930|   -5.374212|   -5.950545|   -5.184350|   -5.321795|  -12.845679|    1.029593|
|         529|  9.3653e+00|   -5.102482|   -5.374946|   -5.950713|   -5.184907|   -5.322374|  -12.846259|    1.029573|
|         530|  9.3636e+00|   -5.103061|   -5.375764|   -5.950910|   -5.185491|   -5.322967|  -12.846865|    1.029551|
|         531|  9.3618e+00|   -5.103653|   -5.376636|   -5.951155|   -5.186093|   -5.323560|  -12.847469|    1.029527|
|         532|  9.3601e+00|   -5.104248|   -5.377528|   -5.951462|   -5.186701|   -5.324142|  -12.848043|    1.029501|
|         533|  9.3586e+00|   -5.104838|   -5.378405|   -5.951841|   -5.187306|   -5.324709|  -12.848565|    1.029473|
|         534|  9.3568e+00|   -5.105420|   -5.379235|   -5.952294|   -5.187904|   -5.325265|  -12.849063|    1.029444|
|         535|  9.3551e+00|   -5.105998|   -5.379990|   -5.952816|   -5.188491|   -5.325821|  -12.849552|    1.029413|
|         536|  9.3534e+00|   -5.106574|   -5.380647|   -5.953387|   -5.189066|   -5.326389|  -12.850024|    1.029379|
|         537|  9.3518e+00|   -5.107149|   -5.381196|   -5.953982|   -5.189633|   -5.326971|  -12.850468|    1.029344|
|         538|  9.3502e+00|   -5.107721|   -5.381631|   -5.954569|   -5.190196|   -5.327566|  -12.850865|    1.029308|
[...]
|        5707|  1.1074e+01|   -5.555574|   -5.878115|   -6.465591|   -5.607340|   -5.802145|   -7.423952|    0.813178|
|        5708|  1.1073e+01|   -5.556892|   -5.879484|   -6.466929|   -5.608455|   -5.803201|   -7.424016|    0.813178|
|        5709|  1.1073e+01|   -5.558216|   -5.880858|   -6.468271|   -5.609577|   -5.804263|   -7.424084|    0.813178|
|        5710|  1.1072e+01|   -5.559546|   -5.882237|   -6.469616|   -5.610704|   -5.805330|   -7.424155|    0.813178|
|        5711|  1.1071e+01|   -5.560881|   -5.883621|   -6.470963|   -5.611837|   -5.806403|   -7.424229|    0.813178|
|        5712|  1.1071e+01|   -5.562222|   -5.885010|   -6.472313|   -5.612976|   -5.807480|   -7.424307|    0.813177|
|        5713|  1.1070e+01|   -5.563568|   -5.886403|   -6.473665|   -5.614121|   -5.808563|   -7.424389|    0.813177|
|        5714|  1.1069e+01|   -5.564920|   -5.887800|   -6.475020|   -5.615271|   -5.809651|   -7.424474|    0.813177|
|        5715|  1.1069e+01|   -5.566277|   -5.889202|   -6.476377|   -5.616427|   -5.810744|   -7.424562|    0.813177|
|        5716|  1.1068e+01|   -5.567639|   -5.890609|   -6.477736|   -5.617589|   -5.811842|   -7.424654|    0.813178|
|        5717|  1.1067e+01|   -5.569007|   -5.892020|   -6.479098|   -5.618757|   -5.812946|   -7.424749|    0.813178|
|        5718|  1.1067e+01|   -5.570380|   -5.893436|   -6.480463|   -5.619931|   -5.814054|   -7.424848|    0.813178|
|        5719|  1.1066e+01|   -5.571758|   -5.894856|   -6.481829|   -5.621110|   -5.815168|   -7.424950|    0.813178|
|        5720|  1.1066e+01|   -5.573142|   -5.896280|   -6.483198|   -5.622295|   -5.816288|   -7.425055|    0.813178|
|        5721|  1.1065e+01|   -5.574531|   -5.897708|   -6.484569|   -5.623486|   -5.817412|   -7.425164|    0.813178|
|        5722|  1.1064e+01|   -5.575926|   -5.899141|   -6.485941|   -5.624682|   -5.818541|   -7.425276|    0.813179|
|        5723|  1.1064e+01|   -5.577325|   -5.900578|   -6.487316|   -5.625884|   -5.819676|   -7.425391|    0.813179|
|        5724|  1.1063e+01|   -5.578730|   -5.902020|   -6.488692|   -5.627092|   -5.820815|   -7.425510|    0.813179|
|        5725|  1.1062e+01|   -5.580140|   -5.903465|   -6.490070|   -5.628306|   -5.821960|   -7.425632|    0.813180|
|        5726|  1.1062e+01|   -5.581555|   -5.904915|   -6.491450|   -5.629525|   -5.823110|   -7.425758|    0.813180|
|        5727|  1.1061e+01|   -5.582975|   -5.906368|   -6.492832|   -5.630750|   -5.824265|   -7.425887|    0.813181|
|        5728|  1.1061e+01|   -5.584400|   -5.907825|   -6.494216|   -5.631980|   -5.825425|   -7.426019|    0.813181|
|        5729|  1.1060e+01|   -5.585830|   -5.909287|   -6.495601|   -5.633216|   -5.826590|   -7.426154|    0.813182|
|        5730|  1.1059e+01|   -5.587265|   -5.910752|   -6.496988|   -5.634458|   -5.827760|   -7.426293|    0.813182|
|        5731|  1.1059e+01|   -5.588705|   -5.912221|   -6.498377|   -5.635705|   -5.828935|   -7.426435|    0.813183|
|        5732|  1.1058e+01|   -5.590150|   -5.913693|   -6.499766|   -5.636957|   -5.830115|   -7.426580|    0.813184|
|        5733|  1.1057e+01|   -5.591599|   -5.915169|   -6.501157|   -5.638215|   -5.831300|   -7.426729|    0.813184|
|        5734|  1.1057e+01|   -5.593055|   -5.916649|   -6.502550|   -5.639480|   -5.832490|   -7.426881|    0.813185|
|        5735|  1.1056e+01|   -5.594515|   -5.918132|   -6.503943|   -5.640750|   -5.833686|   -7.427036|    0.813186|
|        5736|  1.1055e+01|   -5.595980|   -5.919619|   -6.505338|   -5.642026|   -5.834887|   -7.427194|    0.813187|
|        5737|  1.1055e+01|   -5.597450|   -5.921109|   -6.506734|   -5.643307|   -5.836092|   -7.427355|    0.813188|
|        5738|  1.1054e+01|   -5.598923|   -5.922602|   -6.508130|   -5.644593|   -5.837301|   -7.427520|    0.813188|
|        5739|  1.1053e+01|   -5.600401|   -5.924099|   -6.509527|   -5.645883|   -5.838515|   -7.427688|    0.813189|
|        5740|  1.1053e+01|   -5.601883|   -5.925598|   -6.510925|   -5.647179|   -5.839734|   -7.427859|    0.813190|
|        5741|  1.1052e+01|   -5.603369|   -5.927100|   -6.512323|   -5.648480|   -5.840957|   -7.428033|    0.813191|
|        5742|  1.1052e+01|   -5.604860|   -5.928606|   -6.513722|   -5.649786|   -5.842184|   -7.428210|    0.813192|
|        5743|  1.1051e+01|   -5.606354|   -5.930114|   -6.515121|   -5.651096|   -5.843416|   -7.428390|    0.813194|
|        5744|  1.1050e+01|   -5.607852|   -5.931625|   -6.516520|   -5.652412|   -5.844652|   -7.428574|    0.813195|
|        5745|  1.1050e+01|   -5.609354|   -5.933138|   -6.517920|   -5.653732|   -5.845892|   -7.428760|    0.813196|
|        5746|  1.1049e+01|   -5.610860|   -5.934654|   -6.519320|   -5.655057|   -5.847136|   -7.428950|    0.813197|
|        5747|  1.1048e+01|   -5.612370|   -5.936172|   -6.520720|   -5.656387|   -5.848385|   -7.429143|    0.813198|
|        5748|  1.1048e+01|   -5.613883|   -5.937693|   -6.522120|   -5.657722|   -5.849638|   -7.429338|    0.813200|
|        5749|  1.1047e+01|   -5.615400|   -5.939216|   -6.523520|   -5.659061|   -5.850895|   -7.429537|    0.813201|
|        5750|  1.1047e+01|   -5.616920|   -5.940741|   -6.524920|   -5.660405|   -5.852156|   -7.429738|    0.813202|
|        5751|  1.1046e+01|   -5.618443|   -5.942268|   -6.526319|   -5.661753|   -5.853421|   -7.429943|    0.813204|
|        5752|  1.1045e+01|   -5.619969|   -5.943797|   -6.527717|   -5.663105|   -5.854690|   -7.430151|    0.813205|
|        5753|  1.1045e+01|   -5.621499|   -5.945328|   -6.529116|   -5.664462|   -5.855962|   -7.430361|    0.813206|
|        5754|  1.1044e+01|   -5.623032|   -5.946861|   -6.530513|   -5.665823|   -5.857239|   -7.430575|    0.813208|
|        5755|  1.1044e+01|   -5.624567|   -5.948395|   -6.531910|   -5.667189|   -5.858519|   -7.430791|    0.813209|
|        5756|  1.1043e+01|   -5.626106|   -5.949931|   -6.533306|   -5.668558|   -5.859803|   -7.431011|    0.813211|
|        5757|  1.1042e+01|   -5.627647|   -5.951468|   -6.534701|   -5.669932|   -5.861090|   -7.431233|    0.813213|
|        5758|  1.1042e+01|   -5.629192|   -5.953007|   -6.536095|   -5.671310|   -5.862382|   -7.431458|    0.813214|
|        5759|  1.1041e+01|   -5.630738|   -5.954547|   -6.537488|   -5.672693|   -5.863677|   -7.431686|    0.813216|
|        5760|  1.1040e+01|   -5.632288|   -5.956088|   -6.538881|   -5.674079|   -5.864976|   -7.431917|    0.813218|
|        5761|  1.1040e+01|   -5.633840|   -5.957630|   -6.540272|   -5.675470|   -5.866278|   -7.432150|    0.813220|
|        5762|  1.1039e+01|   -5.635395|   -5.959173|   -6.541661|   -5.676864|   -5.867584|   -7.432387|    0.813221|
|        5763|  1.1038e+01|   -5.636952|   -5.960717|   -6.543050|   -5.678263|   -5.868893|   -7.432626|    0.813223|
|        5764|  1.1038e+01|   -5.638511|   -5.962262|   -6.544436|   -5.679666|   -5.870206|   -7.432868|    0.813225|
|        5765|  1.1037e+01|   -5.640073|   -5.963808|   -6.545821|   -5.681072|   -5.871523|   -7.433113|    0.813227|
|        5766|  1.1036e+01|   -5.641636|   -5.965353|   -6.547205|   -5.682482|   -5.872842|   -7.433360|    0.813229|
|        5767|  1.1036e+01|   -5.643201|   -5.966899|   -6.548587|   -5.683896|   -5.874164|   -7.433610|    0.813231|
|        5768|  1.1035e+01|   -5.644768|   -5.968445|   -6.549966|   -5.685313|   -5.875490|   -7.433863|    0.813233|
|        5769|  1.1034e+01|   -5.646337|   -5.969992|   -6.551344|   -5.686735|   -5.876820|   -7.434119|    0.813235|
|        5770|  1.1034e+01|   -5.647908|   -5.971538|   -6.552720|   -5.688160|   -5.878152|   -7.434377|    0.813237|
|        5771|  1.1033e+01|   -5.649481|   -5.973085|   -6.554093|   -5.689589|   -5.879488|   -7.434638|    0.813239|
|        5772|  1.1032e+01|   -5.651056|   -5.974632|   -6.555464|   -5.691021|   -5.880828|   -7.434902|    0.813241|
|        5773|  1.1032e+01|   -5.652632|   -5.976179|   -6.556832|   -5.692458|   -5.882170|   -7.435169|    0.813244|
|        5774|  1.1031e+01|   -5.654210|   -5.977725|   -6.558199|   -5.693898|   -5.883516|   -7.435438|    0.813246|
|        5775|  1.1030e+01|   -5.655789|   -5.979272|   -6.559562|   -5.695341|   -5.884865|   -7.435709|    0.813248|
|        5776|  1.1030e+01|   -5.657370|   -5.980818|   -6.560923|   -5.696789|   -5.886218|   -7.435983|    0.813250|
|        5777|  1.1029e+01|   -5.658951|   -5.982363|   -6.562281|   -5.698239|   -5.887573|   -7.436260|    0.813253|
|        5778|  1.1028e+01|   -5.660535|   -5.983908|   -6.563636|   -5.699694|   -5.888931|   -7.436539|    0.813255|
|        5779|  1.1028e+01|   -5.662119|   -5.985453|   -6.564988|   -5.701151|   -5.890293|   -7.436820|    0.813258|
|        5780|  1.1027e+01|   -5.663704|   -5.986996|   -6.566337|   -5.702613|   -5.891658|   -7.437104|    0.813260|
|        5781|  1.1027e+01|   -5.665290|   -5.988539|   -6.567682|   -5.704077|   -5.893025|   -7.437391|    0.813263|
|        5782|  1.1026e+01|   -5.666878|   -5.990081|   -6.569024|   -5.705545|   -5.894396|   -7.437680|    0.813265|
|        5783|  1.1025e+01|   -5.668466|   -5.991622|   -6.570362|   -5.707017|   -5.895770|   -7.437971|    0.813268|
|        5784|  1.1025e+01|   -5.670054|   -5.993162|   -6.571697|   -5.708491|   -5.897147|   -7.438265|    0.813270|
|        5785|  1.1024e+01|   -5.671644|   -5.994701|   -6.573028|   -5.709969|   -5.898526|   -7.438561|    0.813273|
|        5786|  1.1023e+01|   -5.673234|   -5.996238|   -6.574355|   -5.711451|   -5.899909|   -7.438860|    0.813276|
|        5787|  1.1023e+01|   -5.674824|   -5.997774|   -6.575679|   -5.712935|   -5.901294|   -7.439161|    0.813278|
|        5788|  1.1022e+01|   -5.676414|   -5.999308|   -6.576998|   -5.714422|   -5.902682|   -7.439464|    0.813281|
|        5789|  1.1021e+01|   -5.678005|   -6.000841|   -6.578313|   -5.715913|   -5.904073|   -7.439770|    0.813284|
|        5790|  1.1021e+01|   -5.679596|   -6.002372|   -6.579624|   -5.717406|   -5.905466|   -7.440078|    0.813287|
|        5791|  1.1020e+01|   -5.681186|   -6.003901|   -6.580930|   -5.718903|   -5.906862|   -7.440389|    0.813290|
|        5792|  1.1020e+01|   -5.682777|   -6.005428|   -6.582232|   -5.720402|   -5.908261|   -7.440702|    0.813293|
|        5793|  1.1019e+01|   -5.684368|   -6.006954|   -6.583529|   -5.721904|   -5.909662|   -7.441017|    0.813295|
|        5794|  1.1018e+01|   -5.685958|   -6.008477|   -6.584822|   -5.723410|   -5.911067|   -7.441335|    0.813298|
|        5795|  1.1018e+01|   -5.687548|   -6.009998|   -6.586110|   -5.724918|   -5.912473|   -7.441655|    0.813301|
|        5796|  1.1017e+01|   -5.689137|   -6.011516|   -6.587392|   -5.726428|   -5.913882|   -7.441979|    0.813305|
|        5797|  1.1016e+01|   -5.690726|   -6.013033|   -6.588669|   -5.727942|   -5.915294|   -7.442305|    0.813308|
|        5798|  1.1016e+01|   -5.692314|   -6.014546|   -6.589941|   -5.729458|   -5.916708|   -7.442633|    0.813311|
|        5799|  1.1015e+01|   -5.693901|   -6.016057|   -6.591207|   -5.730977|   -5.918124|   -7.442963|    0.813314|
|        5800|  1.1014e+01|   -5.695487|   -6.017566|   -6.592468|   -5.732498|   -5.919543|   -7.443295|    0.813317|
|        5801|  1.1014e+01|   -5.697073|   -6.019071|   -6.593723|   -5.734022|   -5.920964|   -7.443630|    0.813320|
|        5802|  1.1013e+01|   -5.698657|   -6.020574|   -6.594972|   -5.735549|   -5.922387|   -7.443966|    0.813324|
|        5803|  1.1012e+01|   -5.700239|   -6.022073|   -6.596216|   -5.737077|   -5.923812|   -7.444305|    0.813327|
|        5804|  1.1012e+01|   -5.701820|   -6.023569|   -6.597453|   -5.738608|   -5.925240|   -7.444646|    0.813330|
|        5805|  1.1011e+01|   -5.703400|   -6.025062|   -6.598683|   -5.740142|   -5.926670|   -7.444990|    0.813334|
|        5806|  1.1011e+01|   -5.704978|   -6.026551|   -6.599908|   -5.741677|   -5.928101|   -7.445335|    0.813337|
|        5807|  1.1010e+01|   -5.706554|   -6.028037|   -6.601125|   -5.743215|   -5.929535|   -7.445682|    0.813340|
|        5808|  1.1009e+01|   -5.708128|   -6.029518|   -6.602336|   -5.744754|   -5.930970|   -7.446032|    0.813344|
|        5809|  1.1009e+01|   -5.709699|   -6.030996|   -6.603541|   -5.746296|   -5.932407|   -7.446383|    0.813348|
|        5810|  1.1008e+01|   -5.711269|   -6.032470|   -6.604738|   -5.747839|   -5.933846|   -7.446737|    0.813351|
|        5811|  1.1007e+01|   -5.712836|   -6.033940|   -6.605929|   -5.749384|   -5.935286|   -7.447093|    0.813355|
|        5812|  1.1007e+01|   -5.714400|   -6.035405|   -6.607112|   -5.750931|   -5.936728|   -7.447450|    0.813358|
|        5813|  1.1006e+01|   -5.715961|   -6.036866|   -6.608288|   -5.752479|   -5.938172|   -7.447810|    0.813362|
|        5814|  1.1006e+01|   -5.717520|   -6.038322|   -6.609457|   -5.754029|   -5.939617|   -7.448172|    0.813366|
|        5815|  1.1005e+01|   -5.719075|   -6.039773|   -6.610618|   -5.755580|   -5.941063|   -7.448536|    0.813369|
|        5816|  1.1004e+01|   -5.720627|   -6.041220|   -6.611772|   -5.757132|   -5.942511|   -7.448901|    0.813373|
|        5817|  1.1004e+01|   -5.722175|   -6.042661|   -6.612918|   -5.758686|   -5.943959|   -7.449269|    0.813377|
|        5818|  1.1003e+01|   -5.723720|   -6.044097|   -6.614056|   -5.760240|   -5.945409|   -7.449639|    0.813381|
|        5819|  1.1002e+01|   -5.725261|   -6.045527|   -6.615185|   -5.761796|   -5.946859|   -7.450011|    0.813385|
|        5820|  1.1002e+01|   -5.726798|   -6.046952|   -6.616306|   -5.763352|   -5.948311|   -7.450384|    0.813389|
|        5821|  1.1001e+01|   -5.728330|   -6.048371|   -6.617419|   -5.764908|   -5.949763|   -7.450760|    0.813393|
|        5822|  1.1000e+01|   -5.729858|   -6.049784|   -6.618523|   -5.766466|   -5.951215|   -7.451138|    0.813397|
|        5823|  1.1000e+01|   -5.731381|   -6.051190|   -6.619617|   -5.768023|   -5.952668|   -7.451517|    0.813401|
|        5824|  1.0999e+01|   -5.732900|   -6.052591|   -6.620703|   -5.769581|   -5.954121|   -7.451898|    0.813405|
|        5825|  1.0999e+01|   -5.734413|   -6.053985|   -6.621779|   -5.771139|   -5.955575|   -7.452282|    0.813409|
|        5826|  1.0998e+01|   -5.735921|   -6.055372|   -6.622847|   -5.772697|   -5.957029|   -7.452667|    0.813413|
|        5827|  1.0997e+01|   -5.737424|   -6.056752|   -6.623905|   -5.774254|   -5.958482|   -7.453054|    0.813417|
|        5828|  1.0997e+01|   -5.738921|   -6.058126|   -6.624954|   -5.775811|   -5.959936|   -7.453443|    0.813421|
|        5829|  1.0996e+01|   -5.740412|   -6.059491|   -6.625993|   -5.777368|   -5.961389|   -7.453834|    0.813425|
|        5830|  1.0995e+01|   -5.741896|   -6.060849|   -6.627022|   -5.778924|   -5.962841|   -7.454226|    0.813430|
|        5831|  1.0995e+01|   -5.743374|   -6.062199|   -6.628041|   -5.780479|   -5.964293|   -7.454621|    0.813434|
|        5832|  1.0994e+01|   -5.744845|   -6.063540|   -6.629050|   -5.782033|   -5.965743|   -7.455017|    0.813438|
|        5833|  1.0994e+01|   -5.746310|   -6.064874|   -6.630049|   -5.783585|   -5.967193|   -7.455415|    0.813443|
|        5834|  1.0993e+01|   -5.747767|   -6.066199|   -6.631038|   -5.785136|   -5.968642|   -7.455815|    0.813447|
|        5835|  1.0992e+01|   -5.749217|   -6.067516|   -6.632016|   -5.786686|   -5.970090|   -7.456217|    0.813451|
|        5836|  1.0992e+01|   -5.750659|   -6.068824|   -6.632983|   -5.788234|   -5.971537|   -7.456621|    0.813456|
|        5837|  1.0991e+01|   -5.752094|   -6.070123|   -6.633940|   -5.789780|   -5.972982|   -7.457026|    0.813460|
|        5838|  1.0990e+01|   -5.753521|   -6.071413|   -6.634886|   -5.791324|   -5.974425|   -7.457433|    0.813465|
|        5839|  1.0990e+01|   -5.754939|   -6.072694|   -6.635821|   -5.792866|   -5.975867|   -7.457842|    0.813469|
|        5840|  1.0989e+01|   -5.756349|   -6.073965|   -6.636745|   -5.794406|   -5.977306|   -7.458253|    0.813474|
|        5841|  1.0988e+01|   -5.757751|   -6.075227|   -6.637658|   -5.795943|   -5.978744|   -7.458666|    0.813479|
|        5842|  1.0988e+01|   -5.759143|   -6.076478|   -6.638559|   -5.797477|   -5.980179|   -7.459080|    0.813483|
|        5843|  1.0987e+01|   -5.760527|   -6.077720|   -6.639449|   -5.799008|   -5.981612|   -7.459496|    0.813488|

scontrol show job 1178843
JobId=1178843 JobName=m6_aoa60
   UserId=anthonyy(3152141) GroupId=anthonyy(3152141) MCS_label=N/A
   Priority=532066 Nice=0 Account=rrg-jphickey QOS=normal
   JobState=COMPLETING Reason=TimeLimit Dependency=(null)
   Requeue=0 Restarts=0 BatchFlag=1 Reboot=0 ExitCode=0:15
   RunTime=18:00:22 TimeLimit=18:00:00 TimeMin=N/A
   SubmitTime=2026-03-15T02:51:59 EligibleTime=2026-03-15T02:51:59
   AccrueTime=2026-03-15T02:51:59
   StartTime=2026-03-15T03:51:51 EndTime=2026-03-15T21:52:13 Deadline=N/A
   SuspendTime=None SecsPreSuspend=0 LastSchedEval=2026-03-15T03:51:51 Scheduler=Main
   Partition=compute AllocNode:Sid=tri-login04:768438
   ReqNodeList=(null) ExcNodeList=(null)
   NodeList=tri[0347,0359]
   BatchHost=tri0347
   NumNodes=2 NumCPUs=384 NumTasks=128 CPUs/Task=1 ReqB:S:C:T=0:0:*:*
   ReqTRES=cpu=128,mem=1534000M,node=2,billing=128
   AllocTRES=cpu=384,mem=1534000M,node=2,billing=384
   Socks/Node=* NtasksPerN:B:S:C=64:0:*:* CoreSpec=*
   MinCPUsNode=64 MinMemoryNode=767000M MinTmpDiskNode=0
   Features=(null) DelayBoot=00:00:00
   OverSubscribe=NO Contiguous=0 Licenses=(null) Network=(null)
   Command=/scratch/anthonyy/reentry/orion/config/run.sh
   WorkDir=/scratch/anthonyy/reentry/orion/cases/m6_aoa60
   Comment=/opt/slurm/bin/sbatch --export=NONE --get-user-env=L --job-name m6_aoa60 --nodes 2 --ntasks-per-node 64 --cpus-per-task 1 --mem 0 --time 18:00:00 --account rrg-jphickey --output orion_%j.out --error orion_%j.err --chdir /scratch/anthonyy/reentry/orion/cases/m6_aoa60 /scratch/anthonyy/reentry/orion/config/run.sh /scratch/anthonyy/reentry/orion/config/generated/m6_aoa60.cfg 
   StdErr=/scratch/anthonyy/reentry/orion/cases/m6_aoa60/orion_1178843.err
   StdIn=/dev/null
   StdOut=/scratch/anthonyy/reentry/orion/cases/m6_aoa60/orion_1178843.out
   TresPerTask=cpu=1
   

sacct -j 1178843
JobID           JobName    Account    Elapsed  MaxVMSize     MaxRSS  SystemCPU    UserCPU ExitCode 
------------ ---------- ---------- ---------- ---------- ---------- ---------- ---------- -------- 
1178843        m6_aoa60 rrg-jphic+   18:00:22                         16:51:03 81-11:10:+      0:0 
1178843.bat+      batch rrg-jphic+   18:00:23          0      8400K  00:00.130  00:00.586     0:15 
1178843.ext+     extern rrg-jphic+   18:00:22                         00:00:00   00:00:00      0:0 
1178843.0       SU2_CFD rrg-jphic+   18:00:21          0  10545704K   16:51:03 81-11:09:+     0:15 


kernel messages produced during job executions:
[Mar15 08:15] lockd: server 172.30.214.1 not responding, still trying
[  +0.000000] lockd: server 172.30.214.1 not responding, still trying
[  +0.000004] lockd: server 172.30.214.1 not responding, still trying
[  -0.000001] lockd: server 172.30.214.1 not responding, still trying
[  +0.000003] lockd: server 172.30.214.1 not responding, still trying
[  +0.000000] lockd: server 172.30.214.1 not responding, still trying
[  +0.000003] lockd: server 172.30.214.1 not responding, still trying
[  +0.000003] lockd: server 172.30.214.1 not responding, still trying
[  +0.000001] lockd: server 172.30.214.1 not responding, still trying
[  +0.000001] lockd: server 172.30.214.1 not responding, still trying
[Mar15 13:10] lockd: server 172.30.214.1 OK
[  +0.000160] lockd: server 172.30.214.1 OK
[  +0.000087] lockd: server 172.30.214.1 OK
[  +0.000040] lockd: server 172.30.214.1 OK
[  +0.000024] lockd: server 172.30.214.1 OK
[  +0.000035] lockd: server 172.30.214.1 OK
[  +0.000093] lockd: server 172.30.214.1 OK
[  +0.000097] lockd: server 172.30.214.1 OK
[  +0.000143] lockd: server 172.30.214.1 OK
[  +0.000034] lockd: server 172.30.214.1 OK

