Nodes:  tri[0239,0256]
Tasks:  128
NPN:    64
Config: /scratch/anthonyy/reentry/orion/config/generated/m3_aoa40.cfg

-------------------------------------------------------------------------
|    ___ _   _ ___                                                      |
|   / __| | | |_  )   Release 7.5.1 "Blackbird"                         |
|   \__ \ |_| |/ /                                                      |
|   |___/\___//___|   Suite (Computational Fluid Dynamics Code)         |
|                                                                       |
-------------------------------------------------------------------------
| SU2 Project Website: https://su2code.github.io                        |
|                                                                       |
| The SU2 Project is maintained by the SU2 Foundation                   |
| (http://su2foundation.org)                                            |
-------------------------------------------------------------------------
| Copyright 2012-2023, SU2 Contributors                                 |
|                                                                       |
| SU2 is free software; you can redistribute it and/or                  |
| modify it under the terms of the GNU Lesser General Public            |
| License as published by the Free Software Foundation; either          |
| version 2.1 of the License, or (at your option) any later version.    |
|                                                                       |
| SU2 is distributed in the hope that it will be useful,                |
| but WITHOUT ANY WARRANTY; without even the implied warranty of        |
| MERCHANTABILITY or FITNESS FOR A PARTICULAR PURPOSE. See the GNU      |
| Lesser General Public License for more details.                       |
|                                                                       |
| You should have received a copy of the GNU Lesser General Public      |
| License along with SU2. If not, see <http://www.gnu.org/licenses/>.   |
-------------------------------------------------------------------------

Parsing config file for zone 0

----------------- Physical Case Definition ( Zone 0 ) -------------------
Compressible RANS equations.
Turbulence model: Spalart-Allmaras-noft2
Hybrid RANS/LES: No Hybrid RANS/LES
Mach number: 3.
Angle of attack (AoA): 40 deg, and angle of sideslip (AoS): 0 deg.
Reynolds number: 3.43114e+08. Reference length 5.
No restart solution, use the values at infinity (freestream).
Non-Dimensional simulation (V=1.0, Rho=1.0, T=1.0 at the farfield).
The reference area will be computed using y(2D) or z(3D) projection.
The semi-span will be computed using the max y(3D) value.
The reference length is 0.64607 m.
Reference origin for moment evaluation is (0.25, 0, 0).
Surface(s) where the force coefficients are evaluated: ORION_SURFACE.

Input mesh file name: ../../mesh/fine.su2

--------------- Space Numerical Integration ( Zone 0 ) ------------------
Jameson-Schmidt-Turkel scheme (2nd order in space) for the flow inviscid terms.
JST viscous coefficients (2nd & 4th): 0.5, 0.02.
The method includes a grid stretching correction (p = 0.3).
Scalar upwind solver for the turbulence model.
First order integration in space.
Average of gradients with correction (viscous flow terms).
Average of gradients with correction (viscous turbulence terms).
Gradient for upwind reconstruction: Green-Gauss.
Gradient for viscous and source terms: Green-Gauss.

--------------- Time Numerical Integration  ( Zone 0 ) ------------------
Local time stepping (steady state simulation).
Euler implicit method for the flow equations.
FGMRES is used for solving the linear system.
Using a ILU(0) preconditioning.
Convergence criteria of the linear solver: 1e-06.
Max number of linear iterations: 100.
CFL adaptation. Factor down: 0.5, factor up: 1.2,
                lower limit: 0.1, upper limit: 3,
                acceptable linear residual: 0.001.
Courant-Friedrichs-Lewy number:        1
Euler implicit time integration for the turbulence model.

------------------ Convergence Criteria  ( Zone 0 ) ---------------------
Maximum number of solver subiterations: 999999.
Begin convergence monitoring at iteration 5.
Residual minimum value: 1e-8.
Cauchy series min. value: 1e-10.
Number of Cauchy elements: 100.
Begin windowed time average at iteration 0.

-------------------- Output Information ( Zone 0 ) ----------------------
File writing frequency: 
+------------------------------------+
|                     File| Frequency|
+------------------------------------+
|                  RESTART|       150|
|                 PARAVIEW|       150|
|         SURFACE_PARAVIEW|       150|
+------------------------------------+
Writing the convergence history file every 1 inner iterations.
Writing the screen convergence history every 1 inner iterations.
The tabular file format is CSV (.csv).
Convergence history file name: history.
Forces breakdown file name: forces_breakdown.dat.
Surface file name: surface_flow.
Volume file name: flow.
Restart file name: restart_flow.

------------- Config File Boundary Information ( Zone 0 ) ---------------
+-----------------------------------------------------------------------+
|                        Marker Type|                        Marker Name|
+-----------------------------------------------------------------------+
|                          Far-field|                           FARFIELD|
+-----------------------------------------------------------------------+
|                     Heat flux wall|                      ORION_SURFACE|
+-----------------------------------------------------------------------+

-------------------- Output Preprocessing ( Zone 0 ) --------------------

WARNING: SURFACE_PRESSURE_DROP can only be computed for at least 2 surfaces (outlet, inlet, ...)

Screen output fields: INNER_ITER, WALL_TIME, RMS_DENSITY, RMS_MOMENTUM-X, RMS_MOMENTUM-Y, RMS_MOMENTUM-Z, RMS_ENERGY, RMS_NU_TILDE, DRAG
History output group(s): ITER, RMS_RES
Convergence field(s): RMS_DENSITY
Warning: No (valid) fields chosen for time convergence monitoring. Time convergence monitoring inactive.
Volume output fields: MACH, PRESSURE, TEMPERATURE, DENSITY, HEAT_FLUX, Y_PLUS, COORDINATES, SOLUTION

------------------- Geometry Preprocessing ( Zone 0 ) -------------------
Three dimensional problem.
62211324 grid points before partitioning.
190879888 volume elements before partitioning.
2 surface markers.
4104 boundary elements in index 0 (Marker = FARFIELD).
1824836 boundary elements in index 1 (Marker = ORION_SURFACE).
Executing the partitioning functions.
Building the graph adjacency structure.
Calling ParMETIS... graph partitioning complete (4959327 edge cuts).
Distributing ParMETIS coloring.
Rebalancing vertices.
Rebalancing volume element connectivity.
Rebalancing markers and surface elements.
66952290 vertices including ghost points. 
197997438 interior elements including halo cells. 
103171259 tetrahedra.
94500655 prisms.
325524 pyramids.
Establishing MPI communication patterns.
Setting point connectivity.
Renumbering points (Reverse Cuthill McKee Ordering).
Recomputing point connectivity.
Setting element connectivity.
Checking the numerical grid orientation.
All volume elements are correctly orientend.
All surface elements are correctly orientend.
Identifying edges and vertices.
Setting the control volume structure.
Volume of the computational grid: 535693.
Searching for the closest normal neighbors to the surfaces.
Storing a mapping from global to local point index.
Compute the surface curvature.
Max K: 132.896. Mean K: 3.9104. Standard deviation K: 7.49569.
Checking for periodicity.
Computing mesh quality statistics for the dual control volumes.
+--------------------------------------------------------------+
|           Mesh Quality Metric|        Minimum|        Maximum|
+--------------------------------------------------------------+
|    Orthogonality Angle (deg.)|        53.0661|             90|
|     CV Face Area Aspect Ratio|        1.01143|        75298.5|
|           CV Sub-Volume Ratio|        1.00029|        45.0258|
+--------------------------------------------------------------+
Finding max control volume width.
Communicating number of neighbors.
Reference area = 11.531 m^2.
Semi-span length = 2.49999 m.
Wetted area = 57.9072 m^2.
Area projection in the x-plane = 19.6343 m^2, y-plane = 11.531 m^2, z-plane = 11.531 m^2.
Max. coordinate in the x-direction = 2.575 m, y-direction = 2.49999 m, z-direction = 2.49999 m.
Min. coordinate in the x-direction = -0.71 m, y-direction = -2.49999 m, z-direction = -2.5 m.
Computing wall distances.

-------------------- Solver Preprocessing ( Zone 0 ) --------------------
Viscous flow: Computing pressure using the ideal gas law
based on the free-stream temperature and a density computed
from the Reynolds number.
Force coefficients computed using free-stream values.

-- Models:
+------------------------------------------------------------------------------+
|          Viscosity Model|        Conductivity Model|              Fluid Model|
+------------------------------------------------------------------------------+
|               SUTHERLAND|          CONSTANT_PRANDTL|             STANDARD_AIR|
+------------------------------------------------------------------------------+
-- Fluid properties:
+------------------------------------------------------------------------------+
|                  Name|    Dim. value|    Ref. value|      Unit|Non-dim. value|
+------------------------------------------------------------------------------+
|        Ref. Viscosity|     1.716e-05|       1227.87|   N.s/m^2|   1.39755e-08|
|      Sutherland Temp.|        273.15|        288.15|         K|      0.947944|
|     Sutherland Const.|         110.4|        288.15|         K|      0.383134|
+------------------------------------------------------------------------------+
|        Prandtl (Lam.)|             -|             -|         -|          0.72|
|       Prandtl (Turb.)|             -|             -|         -|           0.9|
+------------------------------------------------------------------------------+
|          Gas Constant|       287.058|       3616.93|  N.m/kg.K|     0.0793651|
|      Spec. Heat Ratio|             -|             -|         -|           1.4|
+------------------------------------------------------------------------------+
-- Initial and free-stream conditions:
+------------------------------------------------------------------------------+
|                  Name|    Dim. value|    Ref. value|      Unit|Non-dim. value|
+------------------------------------------------------------------------------+
|       Static Pressure|       99485.6|   1.25352e+06|        Pa|     0.0793651|
|               Density|       1.20274|       1.20274|    kg/m^3|             1|
|           Temperature|        288.15|        288.15|         K|             1|
|          Total Energy|        727899|   1.04222e+06|   m^2/s^2|      0.698413|
|            Velocity-X|       782.048|       1020.89|       m/s|      0.766044|
|            Velocity-Y|             0|       1020.89|       m/s|             0|
|            Velocity-Z|       656.216|       1020.89|       m/s|      0.642788|
|    Velocity Magnitude|       1020.89|       1020.89|       m/s|             1|
+------------------------------------------------------------------------------+
|             Viscosity|    1.7893e-05|       1227.87|   N.s/m^2|   1.45724e-08|
|          Conductivity|             -|   4.44111e+06|   W/m^2.K|             -|
|     Turb. Kin. Energy|       3908.32|   1.04222e+06|   m^2/s^2|       0.00375|
|     Spec. Dissipation|   2.62712e+07|       1020.89|       1/s|       25733.6|
+------------------------------------------------------------------------------+
|           Mach Number|             -|             -|         -|             3|
|       Reynolds Number|             -|             -|         -|   3.43114e+08|
+------------------------------------------------------------------------------+
Initialize Jacobian structure (Navier-Stokes). MG level: 0.
Initialize Jacobian structure (SA model).

------------------- Numerics Preprocessing ( Zone 0 ) -------------------

----------------- Integration Preprocessing ( Zone 0 ) ------------------

------------------- Iteration Preprocessing ( Zone 0 ) ------------------
Euler/Navier-Stokes/RANS fluid iteration.

------------------------------ Begin Solver -----------------------------

Simulation Run using the Single-zone Driver
WARNING: SU2 was not compiled for an AVX-capable architecture. Performance could be better,
         see https://su2code.github.io/docs_v7/Build-SU2-Linux-MacOS/#compiler-optimizations
+--------------------------------------------------------------------------------------------------------------------+
|  Inner_Iter|   Time(sec)|    rms[Rho]|   rms[RhoU]|   rms[RhoV]|   rms[RhoW]|   rms[RhoE]|     rms[nu]|          CD|
+--------------------------------------------------------------------------------------------------------------------+
|           0|  9.4473e+00|   -5.302696|  -16.072352|  -17.079920|  -16.148240|   -5.411840|  -12.810809|    0.696577|
|           1|  8.1723e+00|   -5.450380|   -5.593582|   -6.433848|   -5.623693|   -5.569570|  -12.767993|    0.962854|
|           2|  7.7353e+00|   -5.469210|   -5.678253|   -6.506447|   -5.678004|   -5.574030|  -12.979447|    1.233788|
|           3|  7.6028e+00|   -5.474104|   -5.738046|   -6.524715|   -5.709742|   -5.569032|  -13.085577|    1.515248|
|           4|  7.5368e+00|   -5.474404|   -5.792741|   -6.491151|   -5.740399|   -5.562079|  -13.161309|    1.818976|
|           5|  7.5746e+00|   -5.476973|   -5.850546|   -6.432907|   -5.774744|   -5.559160|  -13.215334|    2.143644|
|           6|  7.6628e+00|   -5.485868|   -5.902907|   -6.369916|   -5.810620|   -5.564301|  -13.246335|    2.470504|
|           7|  7.8100e+00|   -5.502808|   -5.916484|   -6.303960|   -5.840233|   -5.579247|  -13.257504|    2.765372|
|           8|  7.9323e+00|   -5.526533|   -5.880082|   -6.239964|   -5.849450|   -5.602286|  -13.251325|    2.983595|
|           9|  8.0527e+00|   -5.544698|   -5.827583|   -6.186081|   -5.832527|   -5.617323|  -13.239509|    3.065813|
|          10|  8.1914e+00|   -5.537573|   -5.786091|   -6.141126|   -5.789122|   -5.601450|  -13.221762|    2.976885|
|          11|  8.3085e+00|   -5.501943|   -5.765329|   -6.105005|   -5.742379|   -5.552897|  -13.204266|    2.720306|
|          12|  8.4147e+00|   -5.458901|   -5.772405|   -6.075532|   -5.706340|   -5.499026|  -13.190814|    2.367060|
|          13|  8.5059e+00|   -5.427012|   -5.798232|   -6.049953|   -5.687086|   -5.461294|  -13.181729|    2.019014|
|          14|  8.5420e+00|   -5.414793|   -5.813360|   -6.030661|   -5.688315|   -5.447180|  -13.166839|    1.758977|
|          15|  8.5686e+00|   -5.422308|   -5.802628|   -6.024515|   -5.705481|   -5.455041|  -13.142739|    1.616527|
|          16|  8.6114e+00|   -5.444950|   -5.788747|   -6.035008|   -5.729513|   -5.479972|  -13.118272|    1.593670|
|          17|  8.6676e+00|   -5.472202|   -5.790625|   -6.055814|   -5.747716|   -5.512095|  -13.100885|    1.671282|
|          18|  8.7135e+00|   -5.492867|   -5.806548|   -6.076649|   -5.756826|   -5.538969|  -13.093650|    1.800667|
|          19|  8.7584e+00|   -5.503022|   -5.831433|   -6.093975|   -5.761434|   -5.552825|  -13.091309|    1.937117|
|          20|  8.7984e+00|   -5.506520|   -5.858725|   -6.107114|   -5.764986|   -5.556286|  -13.084688|    2.050316|
|          21|  8.8440e+00|   -5.511772|   -5.882595|   -6.118370|   -5.769151|   -5.561577|  -13.073260|    2.125767|
|          22|  8.8758e+00|   -5.520635|   -5.899416|   -6.125916|   -5.771724|   -5.572300|  -13.058617|    2.161835|
|          23|  8.9020e+00|   -5.528142|   -5.906225|   -6.127566|   -5.771463|   -5.582914|  -13.044197|    2.167606|
|          24|  8.9323e+00|   -5.531248|   -5.901709|   -6.123698|   -5.768772|   -5.589236|  -13.031450|    2.159106|
|          25|  8.9585e+00|   -5.528679|   -5.892757|   -6.117756|   -5.764848|   -5.587788|  -13.023301|    2.152251|
|          26|  8.9763e+00|   -5.521764|   -5.887488|   -6.112779|   -5.760768|   -5.579026|  -13.016648|    2.155918|
|          27|  8.9965e+00|   -5.515067|   -5.889654|   -6.111288|   -5.758466|   -5.569601|  -13.008396|    2.169986|
|          28|  9.0183e+00|   -5.511810|   -5.895560|   -6.111544|   -5.757646|   -5.564461|  -12.998503|    2.188519|
|          29|  9.0376e+00|   -5.512389|   -5.900269|   -6.111749|   -5.757255|   -5.564650|  -12.988503|    2.204301|
|          30|  9.0506e+00|   -5.514668|   -5.899178|   -6.110290|   -5.756421|   -5.568105|  -12.976660|    2.212402|
|          31|  9.0642e+00|   -5.516399|   -5.891917|   -6.107509|   -5.754977|   -5.571575|  -12.966353|    2.211843|
|          32|  9.0815e+00|   -5.514759|   -5.882506|   -6.104312|   -5.752569|   -5.570306|  -12.959903|    2.205225|
|          33|  9.0985e+00|   -5.510747|   -5.877630|   -6.103196|   -5.750575|   -5.564994|  -12.953669|    2.196991|
|          34|  9.1120e+00|   -5.506055|   -5.878981|   -6.103706|   -5.748822|   -5.558209|  -12.949565|    2.191227|
|          35|  9.1091e+00|   -5.503828|   -5.882876|   -6.105007|   -5.747643|   -5.554568|  -12.945173|    2.190040|
|          36|  9.1035e+00|   -5.504749|   -5.885013|   -6.106310|   -5.746203|   -5.555444|  -12.938666|    2.193181|
|          37|  9.1145e+00|   -5.506900|   -5.879933|   -6.106006|   -5.743487|   -5.558700|  -12.928479|    2.198805|
|          38|  9.1241e+00|   -5.507182|   -5.866289|   -6.103698|   -5.738982|   -5.560034|  -12.918166|    2.204685|
|          39|  9.1366e+00|   -5.503663|   -5.848269|   -6.101474|   -5.732911|   -5.556320|  -12.907149|    2.209229|
|          40|  9.1458e+00|   -5.496334|   -5.831202|   -6.099628|   -5.724508|   -5.547167|  -12.897969|    2.211917|
|          41|  9.1554e+00|   -5.487680|   -5.815418|   -6.098447|   -5.714327|   -5.535819|  -12.889394|    2.213145|
|          42|  9.1636e+00|   -5.480319|   -5.798686|   -6.098321|   -5.702584|   -5.526065|  -12.879003|    2.213744|
|          43|  9.1725e+00|   -5.474374|   -5.775916|   -6.097644|   -5.688620|   -5.518548|  -12.864409|    2.214469|
|          44|  9.1802e+00|   -5.468188|   -5.745228|   -6.094952|   -5.672232|   -5.511530|  -12.847137|    2.215693|
|          45|  9.1877e+00|   -5.459056|   -5.709523|   -6.090826|   -5.653327|   -5.501830|  -12.827642|    2.217388|
|          46|  9.1926e+00|   -5.444910|   -5.672730|   -6.085548|   -5.631687|   -5.486655|  -12.808101|    2.219297|
|          47|  9.1986e+00|   -5.427067|   -5.637998|   -6.079751|   -5.608458|   -5.467062|  -12.790058|    2.221160|
|          48|  9.2085e+00|   -5.408288|   -5.606345|   -6.074671|   -5.584825|   -5.446487|  -12.773494|    2.222848|
|          49|  9.2160e+00|   -5.390934|   -5.576397|   -6.070247|   -5.561889|   -5.428109|  -12.756296|    2.224369|
|          50|  9.2240e+00|   -5.375443|   -5.546424|   -6.065081|   -5.539953|   -5.412713|  -12.738795|    2.225788|
|          51|  9.2326e+00|   -5.360792|   -5.516734|   -6.058543|   -5.518991|   -5.399303|  -12.720976|    2.227145|
|          52|  9.2400e+00|   -5.345049|   -5.488589|   -6.050730|   -5.498665|   -5.385503|  -12.703625|    2.228409|
|          53|  9.2465e+00|   -5.327718|   -5.463036|   -6.042158|   -5.479292|   -5.370065|  -12.687345|    2.229516|
|          54|  9.2533e+00|   -5.310121|   -5.440993|   -6.034025|   -5.461437|   -5.354000|  -12.673680|    2.230430|
|          55|  9.2582e+00|   -5.294079|   -5.422475|   -6.027432|   -5.445678|   -5.339467|  -12.662649|    2.231191|
|          56|  9.2643e+00|   -5.280837|   -5.406344|   -6.021981|   -5.432300|   -5.328149|  -12.652784|    2.231914|
|          57|  9.2711e+00|   -5.270298|   -5.391699|   -6.016543|   -5.420999|   -5.320136|  -12.643989|    2.232727|
|          58|  9.2763e+00|   -5.261397|   -5.378496|   -6.010549|   -5.411191|   -5.314295|  -12.635845|    2.233704|
|          59|  9.2807e+00|   -5.252797|   -5.367021|   -6.004064|   -5.402503|   -5.308752|  -12.628029|    2.234814|
|          60|  9.2847e+00|   -5.244134|   -5.357487|   -5.997539|   -5.394969|   -5.302608|  -12.621179|    2.235939|
|          61|  9.2903e+00|   -5.236156|   -5.350212|   -5.992141|   -5.388883|   -5.296529|  -12.616227|    2.236928|
|          62|  9.2970e+00|   -5.229716|   -5.344995|   -5.988212|   -5.384333|   -5.291722|  -12.613502|    2.237683|
|          63|  9.3005e+00|   -5.225379|   -5.341065|   -5.985100|   -5.381296|   -5.289118|  -12.611552|    2.238208|
|          64|  9.3023e+00|   -5.222825|   -5.337890|   -5.981996|   -5.379320|   -5.288535|  -12.610417|    2.238610|
|          65|  9.3063e+00|   -5.221280|   -5.335413|   -5.978533|   -5.377972|   -5.289094|  -12.609345|    2.239039|
|          66|  9.3127e+00|   -5.219804|   -5.333651|   -5.974693|   -5.377048|   -5.289448|  -12.607869|    2.239620|
|          67|  9.3150e+00|   -5.218180|   -5.332700|   -5.971108|   -5.376636|   -5.289077|  -12.606720|    2.240386|
|          68|  9.3177e+00|   -5.216781|   -5.332766|   -5.968457|   -5.376867|   -5.288421|  -12.606826|    2.241269|
|          69|  9.3205e+00|   -5.216106|   -5.333754|   -5.966630|   -5.377771|   -5.288271|  -12.608028|    2.242144|
|          70|  9.3233e+00|   -5.216489|   -5.335227|   -5.965133|   -5.379227|   -5.289224|  -12.609702|    2.242886|
|          71|  9.3244e+00|   -5.217846|   -5.336865|   -5.963584|   -5.381075|   -5.291323|  -12.611908|    2.243439|
|          72|  9.3274e+00|   -5.219719|   -5.338536|   -5.961632|   -5.383088|   -5.294087|  -12.613419|    2.243831|
|          73|  9.3325e+00|   -5.221426|   -5.340260|   -5.959395|   -5.385133|   -5.296524|  -12.614295|    2.244160|
|          74|  9.3355e+00|   -5.222709|   -5.342144|   -5.957450|   -5.387250|   -5.298198|  -12.615313|    2.244534|
|          75|  9.3382e+00|   -5.223703|   -5.344440|   -5.955967|   -5.389494|   -5.299232|  -12.616481|    2.245025|
|          76|  9.3419e+00|   -5.224797|   -5.347238|   -5.954830|   -5.391872|   -5.300160|  -12.618448|    2.245633|
|          77|  9.3463e+00|   -5.226510|   -5.350325|   -5.954000|   -5.394536|   -5.301762|  -12.621126|    2.246298|
|          78|  9.3488e+00|   -5.228941|   -5.353283|   -5.953065|   -5.397483|   -5.304308|  -12.623688|    2.246932|
|          79|  9.3504e+00|   -5.231758|   -5.355955|   -5.951689|   -5.400442|   -5.307467|  -12.625670|    2.247469|
|          80|  9.3532e+00|   -5.234331|   -5.358402|   -5.950127|   -5.403225|   -5.310408|  -12.627218|    2.247889|
|          81|  9.3579e+00|   -5.236229|   -5.360800|   -5.948735|   -5.405797|   -5.312447|  -12.628044|    2.248227|
|          82|  9.3597e+00|   -5.237517|   -5.363391|   -5.947492|   -5.408169|   -5.313522|  -12.628849|    2.248546|
|          83|  9.3603e+00|   -5.238822|   -5.366425|   -5.946655|   -5.410727|   -5.314427|  -12.630671|    2.248906|
|          84|  9.3633e+00|   -5.240656|   -5.369624|   -5.946060|   -5.413628|   -5.315965|  -12.632758|    2.249336|
|          85|  9.3678e+00|   -5.243040|   -5.372514|   -5.945207|   -5.416676|   -5.318287|  -12.634741|    2.249822|
|          86|  9.3697e+00|   -5.245717|   -5.374985|   -5.943960|   -5.419608|   -5.321190|  -12.636633|    2.250319|
|          87|  9.3748e+00|   -5.248031|   -5.377240|   -5.942641|   -5.422172|   -5.323822|  -12.637373|    2.250780|
|          88|  9.3773e+00|   -5.249521|   -5.379389|   -5.941345|   -5.424308|   -5.325388|  -12.637591|    2.251173|
|          89|  9.3785e+00|   -5.250602|   -5.381631|   -5.940359|   -5.426506|   -5.326272|  -12.637980|    2.251499|
|          90|  9.3793e+00|   -5.251731|   -5.384166|   -5.939714|   -5.429016|   -5.327108|  -12.638832|    2.251784|
|          91|  9.3803e+00|   -5.253159|   -5.386760|   -5.939059|   -5.431695|   -5.328350|  -12.639829|    2.252065|
|          92|  9.3813e+00|   -5.254850|   -5.389033|   -5.938092|   -5.434294|   -5.330042|  -12.641061|    2.252371|
|          93|  9.3829e+00|   -5.256673|   -5.390994|   -5.936914|   -5.436618|   -5.332121|  -12.641817|    2.252709|
|          94|  9.3833e+00|   -5.258181|   -5.392820|   -5.935684|   -5.438510|   -5.333961|  -12.641835|    2.253065|
|          95|  9.3846e+00|   -5.259242|   -5.394503|   -5.934678|   -5.440341|   -5.335222|  -12.641752|    2.253414|
|          96|  9.3864e+00|   -5.260096|   -5.396075|   -5.933972|   -5.442420|   -5.336149|  -12.641465|    2.253731|
|          97|  9.3878e+00|   -5.260815|   -5.397757|   -5.933294|   -5.444607|   -5.336868|  -12.641138|    2.254007|
|          98|  9.3878e+00|   -5.261459|   -5.399590|   -5.932465|   -5.446651|   -5.337524|  -12.641286|    2.254245|
|          99|  9.3875e+00|   -5.262135|   -5.401335|   -5.931457|   -5.448466|   -5.338296|  -12.641267|    2.254465|
|         100|  9.3903e+00|   -5.262962|   -5.402903|   -5.930262|   -5.450012|   -5.339354|  -12.641242|    2.254685|
|         101|  9.3929e+00|   -5.264005|   -5.404369|   -5.929142|   -5.451584|   -5.340788|  -12.641196|    2.254916|
|         102|  9.3941e+00|   -5.264975|   -5.405625|   -5.928250|   -5.453357|   -5.342185|  -12.640821|    2.255158|
|         103|  9.3956e+00|   -5.265636|   -5.406589|   -5.927317|   -5.455159|   -5.343187|  -12.639839|    2.255399|
|         104|  9.3572e+00|   -5.265875|   -5.407653|   -5.926199|   -5.456728|   -5.343610|  -12.641941|    2.255423|
|         105|  9.3205e+00|   -5.264498|   -5.407686|   -5.924934|   -5.455884|   -5.341980|  -12.640037|    2.255452|
|         106|  9.2841e+00|   -5.262827|   -5.407749|   -5.923410|   -5.454871|   -5.339997|  -12.637775|    2.255487|
|         107|  9.2482e+00|   -5.260829|   -5.407847|   -5.921589|   -5.453671|   -5.337622|  -12.635121|    2.255528|
|         108|  9.2134e+00|   -5.258468|   -5.407988|   -5.919432|   -5.452264|   -5.334811|  -12.632065|    2.255576|
|         109|  9.1789e+00|   -5.255707|   -5.408170|   -5.916903|   -5.450630|   -5.331528|  -12.628639|    2.255632|
|         110|  9.1484e+00|   -5.252549|   -5.408378|   -5.913996|   -5.448770|   -5.327792|  -12.624957|    2.255698|
|         111|  9.1190e+00|   -5.249043|   -5.408546|   -5.910729|   -5.446701|   -5.323700|  -12.621262|    2.255776|
|         112|  9.0907e+00|   -5.245349|   -5.408558|   -5.907195|   -5.444496|   -5.319520|  -12.617959|    2.255866|
|         113|  9.0683e+00|   -5.241839|   -5.408213|   -5.903615|   -5.442335|   -5.315796|  -12.615626|    2.255969|
|         114|  9.0450e+00|   -5.239167|   -5.407206|   -5.900329|   -5.440566|   -5.313446|  -12.614912|    2.256086|
|         115|  9.0264e+00|   -5.238237|   -5.405244|   -5.897751|   -5.439708|   -5.313603|  -12.616304|    2.256216|
|         116|  9.0081e+00|   -5.239985|   -5.402206|   -5.896100|   -5.440380|   -5.317200|  -12.619278|    2.256358|
|         117|  8.9950e+00|   -5.244661|   -5.398434|   -5.895064|   -5.442879|   -5.324035|  -12.621496|    2.256506|
|         118|  8.9830e+00|   -5.250641|   -5.394797|   -5.893470|   -5.446372|   -5.331392|  -12.618690|    2.256654|
|         119|  8.9748e+00|   -5.253765|   -5.392333|   -5.889269|   -5.448497|   -5.333700|  -12.606519|    2.256793|
|         120|  8.9715e+00|   -5.248202|   -5.391927|   -5.880748|   -5.445748|   -5.324498|  -12.591622|    2.256912|
|         121|  8.9661e+00|   -5.236545|   -5.393946|   -5.871102|   -5.439069|   -5.308496|  -12.589661|    2.257011|
|         122|  8.9661e+00|   -5.229703|   -5.398000|   -5.867972|   -5.435223|   -5.300115|  -12.599289|    2.257100|
|         123|  8.9649e+00|   -5.230792|   -5.403390|   -5.872456|   -5.436898|   -5.302597|  -12.606386|    2.257207|
|         124|  8.9640e+00|   -5.234772|   -5.408789|   -5.879067|   -5.441001|   -5.308756|  -12.609464|    2.257359|
|         125|  8.9649e+00|   -5.238636|   -5.412654|   -5.884025|   -5.445258|   -5.314398|  -12.613027|    2.257553|
|         126|  8.9650e+00|   -5.243221|   -5.414711|   -5.887557|   -5.450409|   -5.320371|  -12.616130|    2.257805|
|         127|  8.9639e+00|   -5.248520|   -5.414915|   -5.889548|   -5.456123|   -5.326622|  -12.618292|    2.258163|
|         128|  8.9637e+00|   -5.254798|   -5.413976|   -5.891028|   -5.461804|   -5.334170|  -12.619805|    2.258732|
|         129|  8.9636e+00|   -5.260245|   -5.413069|   -5.891961|   -5.465851|   -5.341560|  -12.618726|    2.259662|
|         130|  8.9648e+00|   -5.261458|   -5.412538|   -5.890691|   -5.466647|   -5.344064|  -12.613787|    2.261139|
|         131|  8.9654e+00|   -5.257735|   -5.412719|   -5.887329|   -5.464624|   -5.339747|  -12.607592|    2.263338|
|         132|  8.9653e+00|   -5.252921|   -5.414316|   -5.884596|   -5.462390|   -5.333580|  -12.605135|    2.266378|
|         133|  8.9648e+00|   -5.251130|   -5.417114|   -5.884322|   -5.462218|   -5.331700|  -12.605056|    2.270272|
|         134|  8.9651e+00|   -5.251888|   -5.419485|   -5.885210|   -5.463801|   -5.333398|  -12.603952|    2.274889|
|         135|  8.9652e+00|   -5.253714|   -5.420716|   -5.886099|   -5.465958|   -5.336379|  -12.601491|    2.279951|
|         136|  8.9649e+00|   -5.255962|   -5.421192|   -5.886709|   -5.467987|   -5.340053|  -12.599415|    2.285054|
|         137|  8.9642e+00|   -5.257970|   -5.420978|   -5.886443|   -5.469134|   -5.344105|  -12.597521|    2.289731|
|         138|  8.9642e+00|   -5.257652|   -5.420027|   -5.884453|   -5.468401|   -5.345498|  -12.593261|    2.293524|
|         139|  8.9641e+00|   -5.253973|   -5.419834|   -5.881393|   -5.465947|   -5.341714|  -12.586230|    2.296074|
|         140|  8.9633e+00|   -5.249285|   -5.421193|   -5.879081|   -5.463809|   -5.335614|  -12.583051|    2.297189|
|         141|  8.9627e+00|   -5.247438|   -5.423361|   -5.879012|   -5.463536|   -5.333394|  -12.584355|    2.296881|
|         142|  8.9618e+00|   -5.248349|   -5.424689|   -5.880027|   -5.464504|   -5.335251|  -12.585333|    2.295361|
|         143|  8.9611e+00|   -5.250061|   -5.424820|   -5.880772|   -5.465513|   -5.338390|  -12.584024|    2.293007|
|         144|  8.9609e+00|   -5.251401|   -5.424225|   -5.880664|   -5.465831|   -5.341461|  -12.581991|    2.290293|
|         145|  8.9615e+00|   -5.251424|   -5.423191|   -5.879151|   -5.464805|   -5.343403|  -12.578927|    2.287709|
|         146|  8.9624e+00|   -5.248778|   -5.422133|   -5.876377|   -5.462221|   -5.341671|  -12.573561|    2.285684|
|         147|  8.9631e+00|   -5.243885|   -5.422210|   -5.873333|   -5.458897|   -5.335993|  -12.567825|    2.284523|
|         148|  8.9604e+00|   -5.239567|   -5.423506|   -5.871560|   -5.456519|   -5.330456|  -12.565469|    2.284367|
|         149|  8.9585e+00|   -5.238007|   -5.424906|   -5.871297|   -5.455613|   -5.328825|  -12.565640|    2.285193|
|         150|  8.9590e+00|   -5.238691|   -5.425231|   -5.871686|   -5.455650|   -5.330534|  -12.565279|    2.286841|
+-----------------------------------------------------------------------+
|        File Writing Summary       |              Filename             |
+-----------------------------------------------------------------------+
|SU2 binary restart                 |restart_flow.dat                   |
|Paraview                           |flow.vtu                           |
|Paraview surface                   |surface_flow.vtu                   |
+-----------------------------------------------------------------------+
+--------------------------------------------------------------------------------------------------------------------+
|  Inner_Iter|   Time(sec)|    rms[Rho]|   rms[RhoU]|   rms[RhoV]|   rms[RhoW]|   rms[RhoE]|     rms[nu]|          CD|
+--------------------------------------------------------------------------------------------------------------------+
|         151|  9.1005e+00|   -5.240051|   -5.424460|   -5.871841|   -5.455801|   -5.333376|  -12.563467|    2.289059|
|         152|  9.1029e+00|   -5.240877|   -5.423179|   -5.871121|   -5.455292|   -5.335939|  -12.560636|    2.291560|
|         153|  9.1006e+00|   -5.239932|   -5.421570|   -5.868959|   -5.453376|   -5.336446|  -12.556398|    2.294070|
|         154|  9.0973e+00|   -5.236425|   -5.420296|   -5.865842|   -5.449957|   -5.333144|  -12.550808|    2.296369|
|         155|  9.0934e+00|   -5.231276|   -5.420282|   -5.862839|   -5.446003|   -5.326858|  -12.545580|    2.298310|
|         156|  9.0900e+00|   -5.226683|   -5.421286|   -5.860750|   -5.442650|   -5.320935|  -12.542825|    2.299817|
|         157|  9.0866e+00|   -5.224335|   -5.422174|   -5.859602|   -5.440459|   -5.318184|  -12.541830|    2.300878|
|         158|  9.0830e+00|   -5.224236|   -5.421958|   -5.859092|   -5.439459|   -5.318650|  -12.540973|    2.301524|
|         159|  9.0797e+00|   -5.225447|   -5.420606|   -5.858748|   -5.439160|   -5.321082|  -12.539231|    2.301808|
|         160|  9.0767e+00|   -5.226629|   -5.418561|   -5.857840|   -5.438669|   -5.323936|  -12.536550|    2.301792|
|         161|  9.0734e+00|   -5.226139|   -5.416134|   -5.855612|   -5.436804|   -5.324875|  -12.532030|    2.301535|
|         162|  9.0698e+00|   -5.222736|   -5.414075|   -5.852022|   -5.432996|   -5.321458|  -12.525715|    2.301085|
|         163|  9.0665e+00|   -5.217299|   -5.413329|   -5.848258|   -5.428265|   -5.314554|  -12.520411|    2.300482|
|         164|  9.0636e+00|   -5.212137|   -5.413793|   -5.845406|   -5.423841|   -5.307843|  -12.517714|    2.299757|
|         165|  9.0603e+00|   -5.208584|   -5.414378|   -5.843215|   -5.420111|   -5.303465|  -12.515639|    2.298936|
|         166|  9.0565e+00|   -5.206635|   -5.413974|   -5.841126|   -5.417162|   -5.301217|  -12.513586|    2.298039|
|         167|  9.0537e+00|   -5.206288|   -5.412370|   -5.839302|   -5.415147|   -5.301168|  -12.511818|    2.297080|
|         168|  9.0502e+00|   -5.207213|   -5.409910|   -5.837898|   -5.413930|   -5.303363|  -12.510322|    2.296071|
|         169|  9.0466e+00|   -5.208013|   -5.406788|   -5.836318|   -5.412520|   -5.306135|  -12.507625|    2.295021|
|         170|  9.0444e+00|   -5.206092|   -5.403515|   -5.833190|   -5.409168|   -5.305194|  -12.500952|    2.293936|
|         171|  9.0411e+00|   -5.200495|   -5.400976|   -5.828261|   -5.403597|   -5.298320|  -12.493397|    2.292822|
|         172|  9.0381e+00|   -5.194042|   -5.399812|   -5.823772|   -5.397563|   -5.290014|  -12.489514|    2.291684|
|         173|  9.0351e+00|   -5.189064|   -5.399476|   -5.820796|   -5.392146|   -5.284255|  -12.487615|    2.290530|
|         174|  9.0325e+00|   -5.184996|   -5.398577|   -5.818012|   -5.386969|   -5.279835|  -12.484080|    2.289369|
|         175|  9.0303e+00|   -5.181210|   -5.396305|   -5.814313|   -5.381660|   -5.275404|  -12.479609|    2.288208|
|         176|  9.0281e+00|   -5.178367|   -5.392775|   -5.810205|   -5.376517|   -5.272193|  -12.476294|    2.287055|
|         177|  9.0255e+00|   -5.177026|   -5.388328|   -5.806802|   -5.371979|   -5.271627|  -12.474118|    2.285913|
|         178|  9.0232e+00|   -5.175999|   -5.383205|   -5.804059|   -5.367442|   -5.272185|  -12.470640|    2.284783|
|         179|  9.0208e+00|   -5.172204|   -5.377664|   -5.799872|   -5.361151|   -5.268684|  -12.462884|    2.283666|
|         180|  9.0150e+00|   -5.164665|   -5.372034|   -5.793199|   -5.352547|   -5.258974|  -12.454136|    2.282558|
|         181|  9.0093e+00|   -5.156305|   -5.366796|   -5.785894|   -5.342851|   -5.247921|  -12.448748|    2.281460|
|         182|  9.0042e+00|   -5.149232|   -5.361540|   -5.779625|   -5.333143|   -5.239119|  -12.445297|    2.280372|
|         183|  8.9984e+00|   -5.142609|   -5.355092|   -5.773495|   -5.323253|   -5.230954|  -12.440396|    2.279298|
|         184|  8.9925e+00|   -5.135300|   -5.346616|   -5.765866|   -5.312532|   -5.221332|  -12.433821|    2.278241|
|         185|  8.9866e+00|   -5.127629|   -5.336005|   -5.756346|   -5.300826|   -5.210796|  -12.427453|    2.277207|
|         186|  8.9809e+00|   -5.120395|   -5.323520|   -5.745787|   -5.288382|   -5.200881|  -12.422130|    2.276196|
|         187|  8.9749e+00|   -5.113430|   -5.309491|   -5.734948|   -5.275254|   -5.191591|  -12.416458|    2.275209|
|         188|  8.9691e+00|   -5.104771|   -5.294012|   -5.722856|   -5.260785|   -5.180004|  -12.408431|    2.274242|
|         189|  8.9635e+00|   -5.093016|   -5.277018|   -5.708174|   -5.244495|   -5.163907|  -12.397973|    2.273290|
|         190|  8.9581e+00|   -5.079179|   -5.258677|   -5.690947|   -5.226618|   -5.144933|  -12.388229|    2.272347|
|         191|  8.9523e+00|   -5.065002|   -5.239194|   -5.672347|   -5.207761|   -5.125913|  -12.379776|    2.271408|
|         192|  8.9472e+00|   -5.050677|   -5.218377|   -5.652877|   -5.188256|   -5.107187|  -12.371182|    2.270473|
|         193|  8.9423e+00|   -5.035425|   -5.196019|   -5.632148|   -5.168083|   -5.087666|  -12.361144|    2.269543|
|         194|  8.9370e+00|   -5.018864|   -5.172236|   -5.609780|   -5.147181|   -5.066931|  -12.349834|    2.268622|
|         195|  8.9320e+00|   -5.001212|   -5.147402|   -5.585842|   -5.125584|   -5.045498|  -12.338227|    2.267714|
|         196|  8.9269e+00|   -4.982850|   -5.121954|   -5.560888|   -5.103467|   -5.024084|  -12.326445|    2.266823|
|         197|  8.9227e+00|   -4.963581|   -5.096284|   -5.535367|   -5.080923|   -5.002603|  -12.313649|    2.265950|
|         198|  8.9033e+00|   -4.942804|   -5.070548|   -5.509282|   -5.058022|   -4.980332|  -12.324125|    2.265925|
|         199|  8.8833e+00|   -4.941987|   -5.069797|   -5.508530|   -5.057271|   -4.979611|  -12.323208|    2.265895|
|         200|  8.8656e+00|   -4.941011|   -5.068896|   -5.507626|   -5.056372|   -4.978750|  -12.322112|    2.265859|
|         201|  8.8487e+00|   -4.939848|   -5.067817|   -5.506538|   -5.055299|   -4.977723|  -12.320807|    2.265815|
|         202|  8.8324e+00|   -4.938462|   -5.066522|   -5.505229|   -5.054020|   -4.976500|  -12.319253|    2.265763|
|         203|  8.8159e+00|   -4.936815|   -5.064970|   -5.503651|   -5.052494|   -4.975043|  -12.317408|    2.265701|
|         204|  8.7995e+00|   -4.934858|   -5.063108|   -5.501750|   -5.050678|   -4.973312|  -12.315222|    2.265625|
|         205|  8.7834e+00|   -4.932539|   -5.060874|   -5.499457|   -5.048518|   -4.971257|  -12.312639|    2.265535|
|         206|  8.7696e+00|   -4.929796|   -5.058192|   -5.496687|   -5.045952|   -4.968821|  -12.309598|    2.265425|
|         207|  8.7561e+00|   -4.926557|   -5.054970|   -5.493337|   -5.042906|   -4.965938|  -12.306030|    2.265294|
|         208|  8.7428e+00|   -4.922739|   -5.051093|   -5.489278|   -5.039293|   -4.962526|  -12.301860|    2.265135|
|         209|  8.7294e+00|   -4.918241|   -5.046423|   -5.484352|   -5.035005|   -4.958486|  -12.297003|    2.264942|
|         210|  8.7188e+00|   -4.912933|   -5.040783|   -5.478361|   -5.029907|   -4.953690|  -12.291353|    2.264708|
|         211|  8.7083e+00|   -4.906644|   -5.033954|   -5.471061|   -5.023822|   -4.947966|  -12.284764|    2.264424|
|         212|  8.7005e+00|   -4.899128|   -5.025656|   -5.462160|   -5.016520|   -4.941074|  -12.277045|    2.264077|
|         213|  8.6926e+00|   -4.890029|   -5.015538|   -5.451310|   -5.007685|   -4.932672|  -12.267922|    2.263652|
|         214|  8.6842e+00|   -4.878835|   -5.003161|   -5.438118|   -4.996897|   -4.922287|  -12.256957|    2.263131|
|         215|  8.6793e+00|   -4.864854|   -4.988002|   -5.422144|   -4.983621|   -4.909300|  -12.243441|    2.262489|
|         216|  8.6767e+00|   -4.847225|   -4.969479|   -5.402882|   -4.967205|   -4.892962|  -12.226516|    2.261698|
|         217|  8.6731e+00|   -4.825071|   -4.947029|   -5.379722|   -4.946948|   -4.872574|  -12.207914|    2.260787|
|         218|  8.6704e+00|   -4.799325|   -4.922043|   -5.353856|   -4.923865|   -4.849326|  -12.191423|    2.259867|
|         219|  8.6677e+00|   -4.773322|   -4.898061|   -5.328753|   -4.901175|   -4.826632|  -12.174336|    2.258937|
|         220|  8.6647e+00|   -4.747642|   -4.875277|   -5.304506|   -4.879350|   -4.804999|  -12.156860|    2.257995|
|         221|  8.6617e+00|   -4.722629|   -4.853749|   -5.281239|   -4.858711|   -4.784714|  -12.139120|    2.257037|
|         222|  8.6589e+00|   -4.698443|   -4.833466|   -5.259045|   -4.839388|   -4.765917|  -12.121041|    2.256055|
|         223|  8.6563e+00|   -4.675095|   -4.814390|   -5.237959|   -4.821359|   -4.748601|  -12.102646|    2.255040|
|         224|  8.6539e+00|   -4.652503|   -4.796482|   -5.217978|   -4.804499|   -4.732667|  -12.084051|    2.253983|
|         225|  8.6515e+00|   -4.630547|   -4.779709|   -5.199104|   -4.788667|   -4.717960|  -12.065280|    2.252872|
|         226|  8.6482e+00|   -4.609062|   -4.764008|   -5.181341|   -4.773715|   -4.704195|  -12.046346|    2.251702|
|         227|  8.6454e+00|   -4.587956|   -4.749291|   -5.164696|   -4.759535|   -4.691109|  -12.027318|    2.250470|
|         228|  8.6293e+00|   -4.567263|   -4.735457|   -5.149175|   -4.746061|   -4.678581|  -12.069044|    2.250434|
|         229|  8.6129e+00|   -4.566528|   -4.735071|   -5.148872|   -4.745643|   -4.678213|  -12.067627|    2.250391|
|         230|  8.5990e+00|   -4.565654|   -4.734612|   -5.148505|   -4.745147|   -4.677778|  -12.065935|    2.250339|
|         231|  8.5854e+00|   -4.564616|   -4.734069|   -5.148058|   -4.744561|   -4.677267|  -12.063918|    2.250276|
|         232|  8.5719e+00|   -4.563389|   -4.733427|   -5.147515|   -4.743868|   -4.676668|  -12.061516|    2.250199|
|         233|  8.5583e+00|   -4.561939|   -4.732671|   -5.146851|   -4.743053|   -4.675970|  -12.058662|    2.250107|
|         234|  8.5453e+00|   -4.560232|   -4.731782|   -5.146039|   -4.742097|   -4.675159|  -12.055278|    2.249995|
|         235|  8.5323e+00|   -4.558229|   -4.730742|   -5.145041|   -4.740979|   -4.674223|  -12.051277|    2.249859|
|         236|  8.5215e+00|   -4.555888|   -4.729528|   -5.143813|   -4.739679|   -4.673152|  -12.046563|    2.249693|
|         237|  8.5104e+00|   -4.553161|   -4.728115|   -5.142297|   -4.738171|   -4.671934|  -12.041029|    2.249491|
|         238|  8.4997e+00|   -4.549996|   -4.726474|   -5.140420|   -4.736428|   -4.670557|  -12.034558|    2.249243|
|         239|  8.4888e+00|   -4.546334|   -4.724568|   -5.138095|   -4.734418|   -4.669008|  -12.027023|    2.248939|
|         240|  8.4805e+00|   -4.542105|   -4.722344|   -5.135213|   -4.732095|   -4.667264|  -12.018280|    2.248564|
|         241|  8.4726e+00|   -4.537212|   -4.719726|   -5.131644|   -4.729390|   -4.665278|  -12.008162|    2.248100|
|         242|  8.4646e+00|   -4.531520|   -4.716590|   -5.127245|   -4.726195|   -4.662955|  -11.996465|    2.247527|
|         243|  8.4582e+00|   -4.524825|   -4.712745|   -5.121864|   -4.722334|   -4.660119|  -11.982942|    2.246817|
|         244|  8.4517e+00|   -4.516823|   -4.707902|   -5.115362|   -4.717537|   -4.656460|  -11.967308|    2.245941|
|         245|  8.4473e+00|   -4.507084|   -4.701666|   -5.107638|   -4.711418|   -4.651497|  -11.949282|    2.244865|
|         246|  8.4461e+00|   -4.495070|   -4.693566|   -5.098654|   -4.703501|   -4.644586|  -11.928690|    2.243550|
|         247|  8.4446e+00|   -4.480217|   -4.683166|   -5.088460|   -4.693307|   -4.635021|  -11.909497|    2.242053|
|         248|  8.4426e+00|   -4.463279|   -4.671169|   -5.078004|   -4.681393|   -4.623201|  -11.896923|    2.240546|
|         249|  8.4402e+00|   -4.446713|   -4.659662|   -5.068890|   -4.669678|   -4.611200|  -11.884889|    2.239017|
|         250|  8.4385e+00|   -4.431099|   -4.649089|   -5.060895|   -4.658695|   -4.599783|  -11.873562|    2.237449|
|         251|  8.4368e+00|   -4.416819|   -4.639684|   -5.053774|   -4.648802|   -4.589464|  -11.862948|    2.235830|
|         252|  8.4353e+00|   -4.404044|   -4.631505|   -5.047276|   -4.640146|   -4.580461|  -11.852977|    2.234153|
|         253|  8.4340e+00|   -4.392782|   -4.624475|   -5.041171|   -4.632695|   -4.572758|  -11.843530|    2.232417|
|         254|  8.4325e+00|   -4.382928|   -4.618446|   -5.035278|   -4.626286|   -4.566161|  -11.834505|    2.230631|
|         255|  8.4307e+00|   -4.374304|   -4.613226|   -5.029454|   -4.620669|   -4.560363|  -11.825849|    2.228803|
|         256|  8.4290e+00|   -4.366722|   -4.608607|   -5.023593|   -4.615565|   -4.555017|  -11.817580|    2.226945|
|         257|  8.4273e+00|   -4.360009|   -4.604383|   -5.017635|   -4.610711|   -4.549819|  -11.809786|    2.225059|
|         258|  8.4260e+00|   -4.354023|   -4.600377|   -5.011552|   -4.605899|   -4.544556|  -11.802556|    2.223142|
|         259|  8.4244e+00|   -4.348661|   -4.596434|   -5.005321|   -4.600974|   -4.539084|  -11.795960|    2.221176|
|         260|  8.4227e+00|   -4.343858|   -4.592434|   -4.998956|   -4.595859|   -4.533324|  -11.790049|    2.219132|
|         261|  8.4206e+00|   -4.339590|   -4.588297|   -4.992479|   -4.590551|   -4.527276|  -11.784849|    2.216970|
|         262|  8.4192e+00|   -4.335827|   -4.583980|   -4.985910|   -4.585078|   -4.520975|  -11.780346|    2.214641|
|         263|  8.4179e+00|   -4.332548|   -4.579487|   -4.979292|   -4.579506|   -4.514491|  -11.776491|    2.212098|
|         264|  8.4165e+00|   -4.329717|   -4.574851|   -4.972647|   -4.573887|   -4.507878|  -11.773213|    2.209295|
|         265|  8.4155e+00|   -4.327287|   -4.570126|   -4.966013|   -4.568274|   -4.501195|  -11.770411|    2.206195|
|         266|  8.4144e+00|   -4.325196|   -4.565366|   -4.959441|   -4.562690|   -4.494467|  -11.768013|    2.202778|
|         267|  8.4127e+00|   -4.323364|   -4.560616|   -4.952978|   -4.557156|   -4.487719|  -11.765968|    2.199039|
|         268|  8.4110e+00|   -4.321726|   -4.555916|   -4.946679|   -4.551707|   -4.480994|  -11.764249|    2.194992|
|         269|  8.4096e+00|   -4.320243|   -4.551301|   -4.940604|   -4.546378|   -4.474340|  -11.762836|    2.190667|
|         270|  8.4084e+00|   -4.318840|   -4.546797|   -4.934779|   -4.541196|   -4.467803|  -11.761694|    2.186109|
|         271|  8.4071e+00|   -4.317472|   -4.542427|   -4.929216|   -4.536194|   -4.461432|  -11.760779|    2.181373|
|         272|  8.4063e+00|   -4.316124|   -4.538219|   -4.923941|   -4.531429|   -4.455299|  -11.760029|    2.176517|
|         273|  8.4050e+00|   -4.314772|   -4.534210|   -4.918960|   -4.526920|   -4.449430|  -11.759397|    2.171605|
|         274|  8.4037e+00|   -4.313371|   -4.530427|   -4.914312|   -4.522685|   -4.443855|  -11.758801|    2.166696|
|         275|  8.4026e+00|   -4.311905|   -4.526911|   -4.910033|   -4.518736|   -4.438589|  -11.758211|    2.161843|
|         276|  8.4013e+00|   -4.310372|   -4.523688|   -4.906111|   -4.515086|   -4.433633|  -11.757665|    2.157095|
|         277|  8.4004e+00|   -4.308748|   -4.520774|   -4.902556|   -4.511724|   -4.429001|  -11.757140|    2.152490|
|         278|  8.3990e+00|   -4.307030|   -4.518188|   -4.899351|   -4.508637|   -4.424683|  -11.756581|    2.148062|
|         279|  8.3979e+00|   -4.305236|   -4.515946|   -4.896505|   -4.505825|   -4.420687|  -11.755994|    2.143834|
|         280|  8.3968e+00|   -4.303407|   -4.514044|   -4.894017|   -4.503305|   -4.417028|  -11.755386|    2.139829|
|         281|  8.3961e+00|   -4.301589|   -4.512467|   -4.891861|   -4.501090|   -4.413729|  -11.754798|    2.136060|
|         282|  8.3950e+00|   -4.299840|   -4.511222|   -4.890016|   -4.499198|   -4.410842|  -11.754246|    2.132537|
|         283|  8.3935e+00|   -4.298219|   -4.510327|   -4.888449|   -4.497628|   -4.408403|  -11.753772|    2.129265|
|         284|  8.3923e+00|   -4.296749|   -4.509822|   -4.887106|   -4.496363|   -4.406412|  -11.753311|    2.126243|
|         285|  8.3911e+00|   -4.295428|   -4.509723|   -4.885930|   -4.495379|   -4.404825|  -11.752716|    2.123460|
|         286|  8.3902e+00|   -4.294260|   -4.510047|   -4.884912|   -4.494659|   -4.403610|  -11.752002|    2.120900|
|         287|  8.3890e+00|   -4.293240|   -4.510772|   -4.884051|   -4.494164|   -4.402697|  -11.751264|    2.118533|
|         288|  8.3881e+00|   -4.292383|   -4.511874|   -4.883383|   -4.493871|   -4.402047|  -11.750517|    2.116322|
|         289|  8.3878e+00|   -4.291716|   -4.513290|   -4.882928|   -4.493775|   -4.401639|  -11.749868|    2.114222|
|         290|  8.3867e+00|   -4.291288|   -4.514982|   -4.882703|   -4.493871|   -4.401505|  -11.749398|    2.112183|
|         291|  8.3854e+00|   -4.291157|   -4.516932|   -4.882677|   -4.494188|   -4.401705|  -11.749064|    2.110153|
|         292|  8.3838e+00|   -4.291332|   -4.519155|   -4.882831|   -4.494724|   -4.402245|  -11.748729|    2.108081|
|         293|  8.3821e+00|   -4.291780|   -4.521674|   -4.883129|   -4.495463|   -4.403090|  -11.748330|    2.105920|
|         294|  8.3807e+00|   -4.292433|   -4.524477|   -4.883493|   -4.496378|   -4.404119|  -11.747784|    2.103629|
|         295|  8.3793e+00|   -4.293245|   -4.527531|   -4.883889|   -4.497426|   -4.405238|  -11.747090|    2.101175|
|         296|  8.3776e+00|   -4.294248|   -4.530841|   -4.884327|   -4.498614|   -4.406460|  -11.746423|    2.098537|
|         297|  8.3768e+00|   -4.295468|   -4.534365|   -4.884775|   -4.499903|   -4.407818|  -11.745936|    2.095699|
|         298|  8.3758e+00|   -4.296936|   -4.538064|   -4.885253|   -4.501282|   -4.409358|  -11.745597|    2.092656|
|         299|  8.3742e+00|   -4.298631|   -4.541934|   -4.885769|   -4.502723|   -4.411064|  -11.745247|    2.089411|
|         300|  8.3730e+00|   -4.300531|   -4.546010|   -4.886309|   -4.504224|   -4.412906|  -11.744754|    2.085970|
+-----------------------------------------------------------------------+
|        File Writing Summary       |              Filename             |
+-----------------------------------------------------------------------+
|SU2 binary restart                 |restart_flow.dat                   |
|Paraview                           |flow.vtu                           |
|Paraview surface                   |surface_flow.vtu                   |
+-----------------------------------------------------------------------+
+--------------------------------------------------------------------------------------------------------------------+
|  Inner_Iter|   Time(sec)|    rms[Rho]|   rms[RhoU]|   rms[RhoV]|   rms[RhoW]|   rms[RhoE]|     rms[nu]|          CD|
+--------------------------------------------------------------------------------------------------------------------+
|         301|  8.4448e+00|   -4.302599|   -4.550284|   -4.886891|   -4.505784|   -4.414815|  -11.744141|    2.082345|
|         302|  8.4447e+00|   -4.304765|   -4.554669|   -4.887492|   -4.507391|   -4.416718|  -11.743387|    2.078550|
|         303|  8.4440e+00|   -4.307035|   -4.559146|   -4.888119|   -4.509056|   -4.418611|  -11.742538|    2.074601|
|         304|  8.4433e+00|   -4.309398|   -4.563702|   -4.888752|   -4.510766|   -4.420503|  -11.741665|    2.070513|
|         305|  8.4428e+00|   -4.311882|   -4.568370|   -4.889396|   -4.512503|   -4.422442|  -11.740809|    2.066300|
|         306|  8.4420e+00|   -4.314512|   -4.573160|   -4.890060|   -4.514249|   -4.424477|  -11.740092|    2.061976|
|         307|  8.4410e+00|   -4.317278|   -4.578060|   -4.890739|   -4.515990|   -4.426584|  -11.739402|    2.057551|
|         308|  8.4396e+00|   -4.320107|   -4.583029|   -4.891458|   -4.517703|   -4.428716|  -11.738680|    2.053032|
|         309|  8.4386e+00|   -4.322935|   -4.588072|   -4.892240|   -4.519415|   -4.430890|  -11.737887|    2.048424|
|         310|  8.4376e+00|   -4.325875|   -4.593238|   -4.893077|   -4.521155|   -4.433128|  -11.736942|    2.043730|
|         311|  8.4363e+00|   -4.328922|   -4.598589|   -4.893947|   -4.522939|   -4.435446|  -11.735786|    2.038949|
|         312|  8.4349e+00|   -4.332047|   -4.604094|   -4.894838|   -4.524757|   -4.437807|  -11.734533|    2.034078|
|         313|  8.4335e+00|   -4.335221|   -4.609703|   -4.895710|   -4.526593|   -4.440176|  -11.733175|    2.029115|
|         314|  8.4324e+00|   -4.338425|   -4.615335|   -4.896511|   -4.528434|   -4.442533|  -11.731744|    2.024053|
|         315|  8.4308e+00|   -4.341658|   -4.620939|   -4.897260|   -4.530277|   -4.444876|  -11.730250|    2.018888|
|         316|  8.4296e+00|   -4.344947|   -4.626503|   -4.897998|   -4.532141|   -4.447258|  -11.728710|    2.013615|
|         317|  8.4285e+00|   -4.348295|   -4.632025|   -4.898751|   -4.534020|   -4.449701|  -11.727105|    2.008230|
|         318|  8.4271e+00|   -4.351684|   -4.637527|   -4.899538|   -4.535879|   -4.452196|  -11.725412|    2.002729|
|         319|  8.4259e+00|   -4.355093|   -4.643040|   -4.900358|   -4.537681|   -4.454733|  -11.723548|    1.997108|
|         320|  8.4249e+00|   -4.358475|   -4.648545|   -4.901201|   -4.539404|   -4.457264|  -11.721481|    1.991367|
|         321|  8.4239e+00|   -4.361762|   -4.653980|   -4.902038|   -4.541021|   -4.459715|  -11.719198|    1.985503|
|         322|  8.4227e+00|   -4.364926|   -4.659293|   -4.902863|   -4.542531|   -4.462054|  -11.716764|    1.979517|
|         323|  8.4213e+00|   -4.367982|   -4.664410|   -4.903684|   -4.543952|   -4.464304|  -11.714188|    1.973407|
|         324|  8.4200e+00|   -4.370978|   -4.669312|   -4.904543|   -4.545318|   -4.466524|  -11.711476|    1.967174|
|         325|  8.4188e+00|   -4.373939|   -4.674025|   -4.905427|   -4.546642|   -4.468757|  -11.708625|    1.960818|
|         326|  8.4178e+00|   -4.376828|   -4.678521|   -4.906304|   -4.547915|   -4.470977|  -11.705623|    1.954338|
|         327|  8.4168e+00|   -4.379612|   -4.682802|   -4.907150|   -4.549118|   -4.473157|  -11.702411|    1.947735|
|         328|  8.4158e+00|   -4.382280|   -4.686882|   -4.907933|   -4.550252|   -4.475287|  -11.698980|    1.941008|
|         329|  8.4151e+00|   -4.384802|   -4.690752|   -4.908640|   -4.551311|   -4.477333|  -11.695335|    1.934157|
|         330|  8.4145e+00|   -4.387182|   -4.694408|   -4.909301|   -4.552293|   -4.479291|  -11.691481|    1.927182|
|         331|  8.4137e+00|   -4.389436|   -4.697828|   -4.909931|   -4.553196|   -4.481181|  -11.687454|    1.920085|
|         332|  8.4132e+00|   -4.391582|   -4.700981|   -4.910542|   -4.554030|   -4.483032|  -11.683267|    1.912866|
|         333|  8.4125e+00|   -4.393625|   -4.703857|   -4.911168|   -4.554779|   -4.484849|  -11.678920|    1.905527|
|         334|  8.4118e+00|   -4.395557|   -4.706472|   -4.911774|   -4.555424|   -4.486620|  -11.674376|    1.898069|
|         335|  8.4110e+00|   -4.397361|   -4.708795|   -4.912369|   -4.555965|   -4.488337|  -11.669613|    1.890496|
|         336|  8.4102e+00|   -4.399001|   -4.710801|   -4.912920|   -4.556372|   -4.489955|  -11.664635|    1.882811|
|         337|  8.4093e+00|   -4.400448|   -4.712488|   -4.913412|   -4.556627|   -4.491436|  -11.659473|    1.875019|
|         338|  8.4083e+00|   -4.401714|   -4.713871|   -4.913843|   -4.556752|   -4.492791|  -11.654129|    1.867123|
|         339|  8.4070e+00|   -4.402824|   -4.714980|   -4.914243|   -4.556787|   -4.494055|  -11.648615|    1.859128|
|         340|  8.4063e+00|   -4.403798|   -4.715864|   -4.914598|   -4.556750|   -4.495250|  -11.642943|    1.851041|
|         341|  8.4052e+00|   -4.404649|   -4.716567|   -4.914867|   -4.556656|   -4.496378|  -11.637107|    1.842866|
|         342|  8.4046e+00|   -4.405403|   -4.717119|   -4.915076|   -4.556508|   -4.497455|  -11.631118|    1.834611|
|         343|  8.4037e+00|   -4.406104|   -4.717548|   -4.915240|   -4.556344|   -4.498527|  -11.624994|    1.826281|
|         344|  8.4027e+00|   -4.406753|   -4.717892|   -4.915379|   -4.556178|   -4.499617|  -11.618731|    1.817883|
|         345|  8.4022e+00|   -4.407395|   -4.718206|   -4.915501|   -4.556018|   -4.500738|  -11.612310|    1.809423|
|         346|  8.4016e+00|   -4.408048|   -4.718518|   -4.915585|   -4.555885|   -4.501909|  -11.605731|    1.800909|
|         347|  8.4009e+00|   -4.408705|   -4.718877|   -4.915637|   -4.555759|   -4.503112|  -11.599014|    1.792348|
|         348|  8.4003e+00|   -4.409355|   -4.719279|   -4.915648|   -4.555630|   -4.504334|  -11.592148|    1.783747|
|         349|  8.3990e+00|   -4.409986|   -4.719715|   -4.915626|   -4.555479|   -4.505551|  -11.585115|    1.775113|
|         350|  8.3980e+00|   -4.410579|   -4.720179|   -4.915559|   -4.555280|   -4.506731|  -11.577905|    1.766455|
|         351|  8.3969e+00|   -4.411132|   -4.720685|   -4.915439|   -4.555029|   -4.507867|  -11.570506|    1.757780|
|         352|  8.3959e+00|   -4.411625|   -4.721240|   -4.915256|   -4.554710|   -4.508935|  -11.562912|    1.749095|
|         353|  8.3950e+00|   -4.412085|   -4.721822|   -4.915030|   -4.554353|   -4.509958|  -11.555142|    1.740409|
|         354|  8.3943e+00|   -4.412498|   -4.722394|   -4.914769|   -4.553947|   -4.510914|  -11.547177|    1.731729|
|         355|  8.3935e+00|   -4.412896|   -4.722921|   -4.914513|   -4.553518|   -4.511835|  -11.539050|    1.723062|
|         356|  8.3925e+00|   -4.413283|   -4.723348|   -4.914267|   -4.553077|   -4.512725|  -11.530748|    1.714417|
|         357|  8.3914e+00|   -4.413667|   -4.723619|   -4.914055|   -4.552636|   -4.513592|  -11.522276|    1.705801|
|         358|  8.3906e+00|   -4.414033|   -4.723670|   -4.913878|   -4.552174|   -4.514416|  -11.513604|    1.697221|
|         359|  8.3895e+00|   -4.414351|   -4.723436|   -4.913729|   -4.551660|   -4.515169|  -11.504758|    1.688684|
|         360|  8.3887e+00|   -4.414579|   -4.722852|   -4.913579|   -4.551054|   -4.515806|  -11.495789|    1.680196|
|         361|  8.3878e+00|   -4.414666|   -4.721840|   -4.913397|   -4.550320|   -4.516277|  -11.486674|    1.671763|
|         362|  8.3868e+00|   -4.414574|   -4.720345|   -4.913167|   -4.549427|   -4.516555|  -11.477422|    1.663393|
|         363|  8.3857e+00|   -4.414258|   -4.718323|   -4.912844|   -4.548336|   -4.516600|  -11.468065|    1.655090|
|         364|  8.3848e+00|   -4.413680|   -4.715744|   -4.912402|   -4.547017|   -4.516381|  -11.458604|    1.646860|
|         365|  8.3837e+00|   -4.412815|   -4.712737|   -4.911845|   -4.545459|   -4.515911|  -11.449016|    1.638707|
|         366|  8.3824e+00|   -4.411629|   -4.709178|   -4.911177|   -4.543622|   -4.515146|  -11.439276|    1.630636|
|         367|  8.3812e+00|   -4.410099|   -4.705046|   -4.910410|   -4.541497|   -4.514073|  -11.429388|    1.622652|
|         368|  8.3801e+00|   -4.408217|   -4.700391|   -4.909567|   -4.539098|   -4.512706|  -11.419364|    1.614758|
|         369|  8.3792e+00|   -4.405986|   -4.695169|   -4.908658|   -4.536437|   -4.511045|  -11.409214|    1.606957|
|         370|  8.3786e+00|   -4.403423|   -4.689377|   -4.907692|   -4.533549|   -4.509107|  -11.398949|    1.599253|
|         371|  8.3777e+00|   -4.400548|   -4.683014|   -4.906664|   -4.530453|   -4.506898|  -11.388562|    1.591649|
|         372|  8.3770e+00|   -4.397359|   -4.676136|   -4.905557|   -4.527152|   -4.504418|  -11.378043|    1.584146|
|         373|  8.3761e+00|   -4.393877|   -4.668830|   -4.904364|   -4.523660|   -4.501690|  -11.367412|    1.576748|
|         374|  8.3753e+00|   -4.390120|   -4.661171|   -4.903093|   -4.520000|   -4.498724|  -11.356666|    1.569456|
|         375|  8.3744e+00|   -4.386126|   -4.653300|   -4.901766|   -4.516200|   -4.495564|  -11.345834|    1.562271|
|         376|  8.3731e+00|   -4.381949|   -4.645286|   -4.900393|   -4.512287|   -4.492239|  -11.334883|    1.555195|
|         377|  8.3720e+00|   -4.377640|   -4.637206|   -4.899007|   -4.508299|   -4.488779|  -11.323795|    1.548230|
|         378|  8.3711e+00|   -4.373292|   -4.629246|   -4.897627|   -4.504330|   -4.485290|  -11.312585|    1.541376|
|         379|  8.3703e+00|   -4.368963|   -4.621483|   -4.896278|   -4.500429|   -4.481815|  -11.301272|    1.534634|
|         380|  8.3695e+00|   -4.364698|   -4.613954|   -4.894982|   -4.496631|   -4.478395|  -11.289871|    1.528004|
|         381|  8.3687e+00|   -4.360560|   -4.606782|   -4.893774|   -4.492997|   -4.475097|  -11.278399|    1.521488|
|         382|  8.3677e+00|   -4.356678|   -4.600338|   -4.892726|   -4.489651|   -4.472089|  -11.266867|    1.515085|
|         383|  8.3672e+00|   -4.353045|   -4.594314|   -4.891812|   -4.486568|   -4.469291|  -11.255236|    1.508796|
|         384|  8.3664e+00|   -4.349712|   -4.588767|   -4.891074|   -4.483786|   -4.466743|  -11.243521|    1.502621|
|         385|  8.3639e+00|   -4.346716|   -4.583745|   -4.890552|   -4.481328|   -4.464472|  -11.231766|    1.496560|
|         386|  8.3627e+00|   -4.344074|   -4.579299|   -4.890257|   -4.479205|   -4.462495|  -11.220011|    1.490614|
|         387|  8.3606e+00|   -4.341789|   -4.575443|   -4.890177|   -4.477395|   -4.460818|  -11.208284|    1.484782|
|         388|  8.3584e+00|   -4.339883|   -4.572226|   -4.890331|   -4.475906|   -4.459467|  -11.196643|    1.479065|
|         389|  8.3564e+00|   -4.338371|   -4.569694|   -4.890720|   -4.474741|   -4.458462|  -11.185159|    1.473463|
|         390|  8.3539e+00|   -4.337254|   -4.567869|   -4.891365|   -4.473892|   -4.457808|  -11.173879|    1.467976|
|         391|  8.3520e+00|   -4.336526|   -4.566774|   -4.892262|   -4.473342|   -4.457505|  -11.162853|    1.462606|
|         392|  8.3500e+00|   -4.336200|   -4.566447|   -4.893428|   -4.473091|   -4.457566|  -11.152112|    1.457352|
|         393|  8.3478e+00|   -4.336248|   -4.566882|   -4.894839|   -4.473113|   -4.457972|  -11.141691|    1.452214|
|         394|  8.3456e+00|   -4.336647|   -4.568074|   -4.896476|   -4.473384|   -4.458707|  -11.131602|    1.447195|
|         395|  8.3437e+00|   -4.337392|   -4.570034|   -4.898326|   -4.473898|   -4.459770|  -11.121945|    1.442294|
|         396|  8.3419e+00|   -4.338435|   -4.572709|   -4.900323|   -4.474612|   -4.461117|  -11.112788|    1.437511|
|         397|  8.3399e+00|   -4.339741|   -4.576077|   -4.902431|   -4.475496|   -4.462721|  -11.104114|    1.432848|
|         398|  8.3378e+00|   -4.341264|   -4.580078|   -4.904590|   -4.476496|   -4.464535|  -11.095936|    1.428304|
|         399|  8.3358e+00|   -4.342949|   -4.584621|   -4.906752|   -4.477566|   -4.466511|  -11.088260|    1.423881|
|         400|  8.3336e+00|   -4.344743|   -4.589616|   -4.908862|   -4.478667|   -4.468607|  -11.081119|    1.419579|
|         401|  8.3318e+00|   -4.346583|   -4.594956|   -4.910868|   -4.479748|   -4.470767|  -11.074589|    1.415397|
|         402|  8.3296e+00|   -4.348395|   -4.600526|   -4.912739|   -4.480752|   -4.472924|  -11.068695|    1.411336|
|         403|  8.3279e+00|   -4.350129|   -4.606184|   -4.914441|   -4.481644|   -4.475032|  -11.063465|    1.407395|
|         404|  8.3259e+00|   -4.351729|   -4.611787|   -4.915932|   -4.482389|   -4.477037|  -11.058919|    1.403575|
|         405|  8.3236e+00|   -4.353144|   -4.617199|   -4.917184|   -4.482953|   -4.478885|  -11.055010|    1.399875|
|         406|  8.3216e+00|   -4.354316|   -4.622270|   -4.918164|   -4.483297|   -4.480516|  -11.051657|    1.396294|
|         407|  8.3196e+00|   -4.355193|   -4.626862|   -4.918864|   -4.483387|   -4.481877|  -11.048764|    1.392832|
|         408|  8.3175e+00|   -4.355741|   -4.630859|   -4.919278|   -4.483200|   -4.482931|  -11.046270|    1.389488|
|         409|  8.3154e+00|   -4.355930|   -4.634166|   -4.919414|   -4.482713|   -4.483636|  -11.044142|    1.386263|
|         410|  8.3146e+00|   -4.355736|   -4.636712|   -4.919278|   -4.481904|   -4.483954|  -11.042333|    1.383154|
|         411|  8.3138e+00|   -4.355143|   -4.638431|   -4.918885|   -4.480762|   -4.483864|  -11.040785|    1.380163|
|         412|  8.3129e+00|   -4.354157|   -4.639299|   -4.918269|   -4.479294|   -4.483368|  -11.039383|    1.377288|
|         413|  8.3119e+00|   -4.352793|   -4.639321|   -4.917462|   -4.477512|   -4.482474|  -11.038073|    1.374529|
|         414|  8.3110e+00|   -4.351088|   -4.638546|   -4.916503|   -4.475448|   -4.481214|  -11.036841|    1.371887|
|         415|  8.3102e+00|   -4.349055|   -4.637015|   -4.915411|   -4.473117|   -4.479605|  -11.035609|    1.369360|
|         416|  8.3098e+00|   -4.346723|   -4.634796|   -4.914218|   -4.470544|   -4.477674|  -11.034300|    1.366949|
|         417|  8.3093e+00|   -4.344122|   -4.631971|   -4.912944|   -4.467753|   -4.475453|  -11.032926|    1.364654|
|         418|  8.3086e+00|   -4.341285|   -4.628625|   -4.911610|   -4.464775|   -4.472984|  -11.031378|    1.362474|
|         419|  8.3080e+00|   -4.338232|   -4.624834|   -4.910222|   -4.461623|   -4.470283|  -11.029587|    1.360409|
|         420|  8.3076e+00|   -4.334978|   -4.620699|   -4.908788|   -4.458303|   -4.467374|  -11.027460|    1.358460|
|         421|  8.3070e+00|   -4.331553|   -4.616308|   -4.907311|   -4.454847|   -4.464304|  -11.024987|    1.356626|
|         422|  8.3064e+00|   -4.327970|   -4.611727|   -4.905800|   -4.451261|   -4.461090|  -11.022207|    1.354907|
|         423|  8.3059e+00|   -4.324249|   -4.607005|   -4.904246|   -4.447563|   -4.457759|  -11.019194|    1.353301|
|         424|  8.3054e+00|   -4.320410|   -4.602170|   -4.902646|   -4.443773|   -4.454337|  -11.015948|    1.351809|
|         425|  8.3047e+00|   -4.316462|   -4.597246|   -4.900984|   -4.439902|   -4.450835|  -11.012454|    1.350431|
|         426|  8.3041e+00|   -4.312423|   -4.592252|   -4.899240|   -4.435974|   -4.447277|  -11.008711|    1.349164|
|         427|  8.3034e+00|   -4.308298|   -4.587203|   -4.897404|   -4.431998|   -4.443677|  -11.004717|    1.348008|
|         428|  8.3025e+00|   -4.304095|   -4.582097|   -4.895469|   -4.427974|   -4.440037|  -11.000495|    1.346963|
|         429|  8.3018e+00|   -4.299800|   -4.576917|   -4.893409|   -4.423894|   -4.436340|  -10.996085|    1.346027|
|         430|  8.3013e+00|   -4.295427|   -4.571671|   -4.891216|   -4.419763|   -4.432593|  -10.991495|    1.345200|
|         431|  8.3017e+00|   -4.290978|   -4.566351|   -4.888879|   -4.415572|   -4.428782|  -10.986696|    1.344480|
|         432|  8.3017e+00|   -4.286435|   -4.560944|   -4.886392|   -4.411299|   -4.424883|  -10.981660|    1.343866|
|         433|  8.3011e+00|   -4.281854|   -4.555488|   -4.883756|   -4.406991|   -4.420935|  -10.976395|    1.343358|
|         434|  8.3005e+00|   -4.277216|   -4.549964|   -4.880970|   -4.402630|   -4.416920|  -10.970926|    1.342954|
|         435|  8.2999e+00|   -4.272520|   -4.544373|   -4.878046|   -4.398221|   -4.412842|  -10.965226|    1.342654|
|         436|  8.2997e+00|   -4.267779|   -4.538723|   -4.874994|   -4.393777|   -4.408710|  -10.959316|    1.342455|
|         437|  8.2990e+00|   -4.262999|   -4.533018|   -4.871828|   -4.389308|   -4.404530|  -10.953198|    1.342358|
|         438|  8.2983e+00|   -4.258207|   -4.527278|   -4.868582|   -4.384838|   -4.400325|  -10.946884|    1.342362|
|         439|  8.2977e+00|   -4.253379|   -4.521487|   -4.865251|   -4.380343|   -4.396065|  -10.940438|    1.342465|
|         440|  8.2970e+00|   -4.248509|   -4.515642|   -4.861838|   -4.375821|   -4.391744|  -10.933906|    1.342666|
|         441|  8.2965e+00|   -4.243596|   -4.509744|   -4.858350|   -4.371265|   -4.387359|  -10.927314|    1.342964|
|         442|  8.2960e+00|   -4.238646|   -4.503800|   -4.854798|   -4.366677|   -4.382911|  -10.920684|    1.343359|
|         443|  8.2957e+00|   -4.233673|   -4.497828|   -4.851181|   -4.362065|   -4.378409|  -10.913985|    1.343848|
|         444|  8.2952e+00|   -4.228705|   -4.491863|   -4.847528|   -4.357451|   -4.373879|  -10.907240|    1.344432|
|         445|  8.2946e+00|   -4.223742|   -4.485916|   -4.843830|   -4.352834|   -4.369325|  -10.900437|    1.345108|
|         446|  8.2941e+00|   -4.218803|   -4.480007|   -4.840087|   -4.348238|   -4.364768|  -10.893580|    1.345875|
|         447|  8.2937e+00|   -4.213917|   -4.474163|   -4.836314|   -4.343680|   -4.360231|  -10.886680|    1.346733|
|         448|  8.2933e+00|   -4.209086|   -4.468390|   -4.832513|   -4.339161|   -4.355715|  -10.879688|    1.347680|
|         449|  8.2929e+00|   -4.204339|   -4.462723|   -4.828709|   -4.334709|   -4.351254|  -10.872610|    1.348714|
|         450|  8.2924e+00|   -4.199695|   -4.457178|   -4.824915|   -4.330336|   -4.346864|  -10.865446|    1.349835|
+-----------------------------------------------------------------------+
|        File Writing Summary       |              Filename             |
+-----------------------------------------------------------------------+
|SU2 binary restart                 |restart_flow.dat                   |
|Paraview                           |flow.vtu                           |
|Paraview surface                   |surface_flow.vtu                   |
+-----------------------------------------------------------------------+
+--------------------------------------------------------------------------------------------------------------------+
|  Inner_Iter|   Time(sec)|    rms[Rho]|   rms[RhoU]|   rms[RhoV]|   rms[RhoW]|   rms[RhoE]|     rms[nu]|          CD|
+--------------------------------------------------------------------------------------------------------------------+
|         451|  8.3381e+00|   -4.195141|   -4.451747|   -4.821134|   -4.326030|   -4.342531|  -10.858225|    1.351042|
|         452|  8.3378e+00|   -4.190672|   -4.446426|   -4.817369|   -4.321796|   -4.338258|  -10.850985|    1.352333|
|         453|  8.3373e+00|   -4.186355|   -4.441253|   -4.813652|   -4.317706|   -4.334116|  -10.843777|    1.353706|
|         454|  8.3367e+00|   -4.182115|   -4.436181|   -4.809975|   -4.313680|   -4.330025|  -10.836628|    1.355162|
|         455|  8.3362e+00|   -4.177979|   -4.431226|   -4.806362|   -4.309743|   -4.326005|  -10.829514|    1.356700|
|         456|  8.3357e+00|   -4.173906|   -4.426352|   -4.802790|   -4.305856|   -4.322024|  -10.822441|    1.358317|
|         457|  8.3351e+00|   -4.169897|   -4.421555|   -4.799253|   -4.302031|   -4.318092|  -10.815406|    1.360013|
|         458|  8.3350e+00|   -4.165934|   -4.416821|   -4.795756|   -4.298240|   -4.314184|  -10.808397|    1.361788|
|         459|  8.3344e+00|   -4.162019|   -4.412145|   -4.792303|   -4.294486|   -4.310301|  -10.801389|    1.363639|
|         460|  8.3338e+00|   -4.158161|   -4.407535|   -4.788910|   -4.290782|   -4.306455|  -10.794363|    1.365568|
|         461|  8.3329e+00|   -4.154357|   -4.402984|   -4.785573|   -4.287128|   -4.302646|  -10.787306|    1.367571|
|         462|  8.3322e+00|   -4.150602|   -4.398485|   -4.782277|   -4.283518|   -4.298866|  -10.780243|    1.369650|
|         463|  8.3314e+00|   -4.146882|   -4.394030|   -4.779017|   -4.279937|   -4.295101|  -10.773138|    1.371802|
|         464|  8.3306e+00|   -4.143203|   -4.389625|   -4.775812|   -4.276391|   -4.291365|  -10.765981|    1.374026|
|         465|  8.3299e+00|   -4.139556|   -4.385262|   -4.772646|   -4.272872|   -4.287648|  -10.758781|    1.376323|
|         466|  8.3293e+00|   -4.135940|   -4.380940|   -4.769518|   -4.269371|   -4.283945|  -10.751545|    1.378690|
|         467|  8.3286e+00|   -4.132352|   -4.376659|   -4.766424|   -4.265890|   -4.280257|  -10.744266|    1.381126|
|         468|  8.3278e+00|   -4.128827|   -4.372440|   -4.763374|   -4.262466|   -4.276622|  -10.736939|    1.383631|
|         469|  8.3270e+00|   -4.125361|   -4.368280|   -4.760351|   -4.259102|   -4.273038|  -10.729557|    1.386204|
|         470|  8.3262e+00|   -4.121972|   -4.364183|   -4.757362|   -4.255832|   -4.269534|  -10.722152|    1.388842|
|         471|  8.3256e+00|   -4.118687|   -4.360166|   -4.754428|   -4.252687|   -4.266142|  -10.714742|    1.391544|
|         472|  8.3247e+00|   -4.115496|   -4.356224|   -4.751561|   -4.249644|   -4.262843|  -10.707341|    1.394310|
|         473|  8.3243e+00|   -4.112387|   -4.352349|   -4.748738|   -4.246693|   -4.259622|  -10.699960|    1.397137|
|         474|  8.3239e+00|   -4.109378|   -4.348551|   -4.745952|   -4.243859|   -4.256498|  -10.692600|    1.400025|
|         475|  8.3234e+00|   -4.106477|   -4.344832|   -4.743219|   -4.241168|   -4.253494|  -10.685229|    1.402971|
|         476|  8.3227e+00|   -4.103633|   -4.341159|   -4.740514|   -4.238548|   -4.250543|  -10.677821|    1.405974|
|         477|  8.3220e+00|   -4.100889|   -4.337548|   -4.737856|   -4.236045|   -4.247690|  -10.670398|    1.409033|
|         478|  8.3214e+00|   -4.098218|   -4.334000|   -4.735255|   -4.233628|   -4.244908|  -10.662971|    1.412145|
|         479|  8.3212e+00|   -4.095630|   -4.330525|   -4.732734|   -4.231303|   -4.242206|  -10.655543|    1.415310|
|         480|  8.3209e+00|   -4.093133|   -4.327133|   -4.730303|   -4.229067|   -4.239586|  -10.648122|    1.418526|
|         481|  8.3204e+00|   -4.090739|   -4.323833|   -4.727986|   -4.226937|   -4.237063|  -10.640724|    1.421790|
|         482|  8.3196e+00|   -4.088453|   -4.320637|   -4.725760|   -4.224909|   -4.234633|  -10.633324|    1.425101|
|         483|  8.3188e+00|   -4.086239|   -4.317529|   -4.723617|   -4.222946|   -4.232265|  -10.625905|    1.428458|
|         484|  8.3182e+00|   -4.084128|   -4.314551|   -4.721606|   -4.221079|   -4.229997|  -10.618476|    1.431859|
|         485|  8.3179e+00|   -4.082176|   -4.311724|   -4.719790|   -4.219363|   -4.227890|  -10.611038|    1.435302|
|         486|  8.3172e+00|   -4.080354|   -4.309034|   -4.718114|   -4.217758|   -4.225899|  -10.603604|    1.438784|
|         487|  8.3163e+00|   -4.078622|   -4.306456|   -4.716525|   -4.216214|   -4.223972|  -10.596140|    1.442306|
|         488|  8.3159e+00|   -4.076964|   -4.303995|   -4.715038|   -4.214710|   -4.222098|  -10.588679|    1.445864|
|         489|  8.3152e+00|   -4.075377|   -4.301643|   -4.713626|   -4.213238|   -4.220272|  -10.581240|    1.449457|
|         490|  8.3145e+00|   -4.073848|   -4.299400|   -4.712273|   -4.211779|   -4.218479|  -10.573804|    1.453083|
|         491|  8.3140e+00|   -4.072393|   -4.297280|   -4.710990|   -4.210351|   -4.216741|  -10.566421|    1.456741|
|         492|  8.3134e+00|   -4.071036|   -4.295286|   -4.709763|   -4.208988|   -4.215088|  -10.559046|    1.460428|
|         493|  8.3128e+00|   -4.069732|   -4.293394|   -4.708565|   -4.207642|   -4.213473|  -10.551649|    1.464143|
|         494|  8.3124e+00|   -4.068553|   -4.291644|   -4.707399|   -4.206392|   -4.211967|  -10.544230|    1.467883|
|         495|  8.3119e+00|   -4.067446|   -4.289990|   -4.706266|   -4.205191|   -4.210519|  -10.536822|    1.471647|
|         496|  8.3113e+00|   -4.066392|   -4.288399|   -4.705185|   -4.204041|   -4.209125|  -10.529407|    1.475434|
|         497|  8.3106e+00|   -4.065344|   -4.286836|   -4.704137|   -4.202891|   -4.207734|  -10.521999|    1.479240|
|         498|  8.3101e+00|   -4.064287|   -4.285279|   -4.703127|   -4.201737|   -4.206334|  -10.514586|    1.483065|
|         499|  8.3094e+00|   -4.063226|   -4.283721|   -4.702155|   -4.200589|   -4.204933|  -10.507122|    1.486905|
|         500|  8.3090e+00|   -4.062212|   -4.282176|   -4.701250|   -4.199507|   -4.203583|  -10.499619|    1.490761|
|         501|  8.3083e+00|   -4.061221|   -4.280630|   -4.700369|   -4.198473|   -4.202254|  -10.492104|    1.494628|
|         502|  8.3075e+00|   -4.060223|   -4.279062|   -4.699527|   -4.197462|   -4.200921|  -10.484616|    1.498506|
|         503|  8.3070e+00|   -4.059205|   -4.277461|   -4.698722|   -4.196465|   -4.199576|  -10.477186|    1.502392|
|         504|  8.3065e+00|   -4.058234|   -4.275870|   -4.697976|   -4.195544|   -4.198278|  -10.469796|    1.506285|
|         505|  8.2998e+00|   -4.057264|   -4.274260|   -4.697259|   -4.194643|   -4.196977|  -10.471248|    1.506409|
|         506|  8.2931e+00|   -4.057407|   -4.274337|   -4.697479|   -4.194816|   -4.197245|  -10.470896|    1.506558|
|         507|  8.2863e+00|   -4.057583|   -4.274438|   -4.697733|   -4.195027|   -4.197573|  -10.470474|    1.506737|
|         508|  8.2805e+00|   -4.057801|   -4.274573|   -4.698024|   -4.195285|   -4.197974|  -10.469969|    1.506951|
|         509|  8.2749e+00|   -4.058072|   -4.274752|   -4.698355|   -4.195604|   -4.198469|  -10.469366|    1.507210|
|         510|  8.2693e+00|   -4.058410|   -4.274992|   -4.698726|   -4.195996|   -4.199079|  -10.468644|    1.507520|
|         511|  8.2638e+00|   -4.058832|   -4.275311|   -4.699133|   -4.196479|   -4.199832|  -10.467784|    1.507894|
|         512|  8.2583e+00|   -4.059358|   -4.275737|   -4.699574|   -4.197074|   -4.200764|  -10.466757|    1.508343|
|         513|  8.2529e+00|   -4.060015|   -4.276302|   -4.700036|   -4.197806|   -4.201916|  -10.465533|    1.508884|
|         514|  8.2484e+00|   -4.060833|   -4.277049|   -4.700500|   -4.198705|   -4.203338|  -10.464076|    1.509536|
|         515|  8.2438e+00|   -4.061846|   -4.278024|   -4.700941|   -4.199802|   -4.205087|  -10.462345|    1.510322|
|         516|  8.2391e+00|   -4.063087|   -4.279276|   -4.701327|   -4.201126|   -4.207216|  -10.460289|    1.511270|
|         517|  8.2346e+00|   -4.064578|   -4.280843|   -4.701616|   -4.202695|   -4.209766|  -10.457849|    1.512414|
|         518|  8.2310e+00|   -4.066321|   -4.282738|   -4.701766|   -4.204507|   -4.212744|  -10.454957|    1.513795|
|         519|  8.2276e+00|   -4.068272|   -4.284912|   -4.701739|   -4.206518|   -4.216092|  -10.451536|    1.515461|
|         520|  8.2252e+00|   -4.070295|   -4.287194|   -4.701528|   -4.208592|   -4.219606|  -10.447494|    1.517471|
|         521|  8.2226e+00|   -4.072126|   -4.289244|   -4.701160|   -4.210467|   -4.222875|  -10.442720|    1.519891|
|         522|  8.2202e+00|   -4.073340|   -4.290497|   -4.700703|   -4.211731|   -4.225213|  -10.437081|    1.522803|
|         523|  8.2189e+00|   -4.073392|   -4.290202|   -4.700287|   -4.211855|   -4.225696|  -10.430449|    1.526300|
|         524|  8.2175e+00|   -4.071687|   -4.287534|   -4.700026|   -4.210264|   -4.223274|  -10.423225|    1.530232|
|         525|  8.2163e+00|   -4.068305|   -4.282537|   -4.700157|   -4.207056|   -4.217936|  -10.416270|    1.534141|
|         526|  8.2148e+00|   -4.064574|   -4.276869|   -4.701003|   -4.203563|   -4.211703|  -10.409176|    1.538030|
|         527|  8.2134e+00|   -4.061093|   -4.271416|   -4.702236|   -4.200333|   -4.205566|  -10.402002|    1.541899|
|         528|  8.2122e+00|   -4.058210|   -4.266749|   -4.703527|   -4.197679|   -4.200162|  -10.394772|    1.545751|
|         529|  8.2108e+00|   -4.056166|   -4.263194|   -4.704700|   -4.195829|   -4.195911|  -10.387510|    1.549586|
|         530|  8.2094e+00|   -4.054986|   -4.260799|   -4.705590|   -4.194813|   -4.192920|  -10.380192|    1.553403|
|         531|  8.2078e+00|   -4.054597|   -4.259468|   -4.706176|   -4.194568|   -4.191135|  -10.372764|    1.557201|
|         532|  8.2065e+00|   -4.054813|   -4.258995|   -4.706460|   -4.194897|   -4.190329|  -10.365209|    1.560980|
|         533|  8.2053e+00|   -4.055455|   -4.259143|   -4.706512|   -4.195629|   -4.190264|  -10.357492|    1.564736|
|         534|  8.2040e+00|   -4.056373|   -4.259688|   -4.706425|   -4.196635|   -4.190725|  -10.349573|    1.568468|
|         535|  8.2026e+00|   -4.057415|   -4.260434|   -4.706305|   -4.197759|   -4.191482|  -10.341465|    1.572175|
|         536|  8.2012e+00|   -4.058492|   -4.261252|   -4.706280|   -4.198902|   -4.192377|  -10.333224|    1.575854|
|         537|  8.2010e+00|   -4.059563|   -4.262067|   -4.706418|   -4.200029|   -4.193317|  -10.324890|    1.579504|
|         538|  8.2007e+00|   -4.060611|   -4.262833|   -4.706746|   -4.201136|   -4.194248|  -10.316508|    1.583123|
[...]
|        3714|  8.0493e+00|   -6.339267|   -6.517757|   -6.937558|   -6.510611|   -6.492555|   -8.659624|    1.577242|
|        3715|  8.0493e+00|   -6.340641|   -6.518648|   -6.939385|   -6.511500|   -6.493150|   -8.661619|    1.577210|
|        3716|  8.0492e+00|   -6.342199|   -6.519728|   -6.941324|   -6.512570|   -6.493911|   -8.663834|    1.577178|
|        3717|  8.0492e+00|   -6.343943|   -6.520997|   -6.943374|   -6.513819|   -6.494839|   -8.666277|    1.577145|
|        3718|  8.0491e+00|   -6.345870|   -6.522455|   -6.945531|   -6.515247|   -6.495934|   -8.668955|    1.577113|
|        3719|  8.0491e+00|   -6.347981|   -6.524101|   -6.947794|   -6.516854|   -6.497196|   -8.671874|    1.577080|
|        3720|  8.0491e+00|   -6.350274|   -6.525934|   -6.950161|   -6.518640|   -6.498624|   -8.675042|    1.577047|
|        3721|  8.0490e+00|   -6.352750|   -6.527955|   -6.952630|   -6.520603|   -6.500219|   -8.678465|    1.577014|
|        3722|  8.0490e+00|   -6.355406|   -6.530161|   -6.955196|   -6.522743|   -6.501978|   -8.682148|    1.576981|
|        3723|  8.0490e+00|   -6.358240|   -6.532552|   -6.957856|   -6.525058|   -6.503900|   -8.686098|    1.576948|
|        3724|  8.0489e+00|   -6.361253|   -6.535127|   -6.960608|   -6.527548|   -6.505986|   -8.690319|    1.576915|
|        3725|  8.0489e+00|   -6.364442|   -6.537885|   -6.963446|   -6.530211|   -6.508233|   -8.694817|    1.576882|
|        3726|  8.0488e+00|   -6.367804|   -6.540824|   -6.966366|   -6.533046|   -6.510641|   -8.699597|    1.576849|
|        3727|  8.0487e+00|   -6.371338|   -6.543942|   -6.969363|   -6.536049|   -6.513206|   -8.704662|    1.576816|
|        3728|  8.0487e+00|   -6.375037|   -6.547238|   -6.972431|   -6.539218|   -6.515925|   -8.710017|    1.576783|
|        3729|  8.0486e+00|   -6.378901|   -6.550708|   -6.975564|   -6.542551|   -6.518796|   -8.715665|    1.576751|
|        3730|  8.0486e+00|   -6.382924|   -6.554350|   -6.978758|   -6.546045|   -6.521816|   -8.721609|    1.576718|
|        3731|  8.0485e+00|   -6.387103|   -6.558161|   -6.982007|   -6.549697|   -6.524982|   -8.727850|    1.576686|
|        3732|  8.0484e+00|   -6.391434|   -6.562138|   -6.985307|   -6.553502|   -6.528293|   -8.734391|    1.576654|
|        3733|  8.0484e+00|   -6.395913|   -6.566278|   -6.988649|   -6.557457|   -6.531745|   -8.741231|    1.576622|
|        3734|  8.0483e+00|   -6.400534|   -6.570576|   -6.992025|   -6.561557|   -6.535334|   -8.748369|    1.576590|
|        3735|  8.0483e+00|   -6.405291|   -6.575027|   -6.995429|   -6.565799|   -6.539056|   -8.755803|    1.576559|
|        3736|  8.0483e+00|   -6.410176|   -6.579627|   -6.998850|   -6.570176|   -6.542904|   -8.763528|    1.576528|
|        3737|  8.0482e+00|   -6.415181|   -6.584369|   -7.002283|   -6.574682|   -6.546874|   -8.771540|    1.576497|
|        3738|  8.0482e+00|   -6.420300|   -6.589247|   -7.005716|   -6.579310|   -6.550962|   -8.779828|    1.576467|
|        3739|  8.0481e+00|   -6.425523|   -6.594254|   -7.009145|   -6.584057|   -6.555161|   -8.788379|    1.576437|
|        3740|  8.0481e+00|   -6.430838|   -6.599381|   -7.012555|   -6.588911|   -6.559461|   -8.797178|    1.576408|
|        3741|  8.0481e+00|   -6.436232|   -6.604619|   -7.015936|   -6.593861|   -6.563854|   -8.806207|    1.576379|
|        3742|  8.0480e+00|   -6.441692|   -6.609958|   -7.019281|   -6.598897|   -6.568331|   -8.815442|    1.576350|
|        3743|  8.0479e+00|   -6.447207|   -6.615386|   -7.022578|   -6.604008|   -6.572883|   -8.824852|    1.576322|
|        3744|  8.0479e+00|   -6.452760|   -6.620892|   -7.025816|   -6.609183|   -6.577502|   -8.834399|    1.576294|
|        3745|  8.0479e+00|   -6.458338|   -6.626463|   -7.028986|   -6.614409|   -6.582176|   -8.844039|    1.576266|
|        3746|  8.0478e+00|   -6.463924|   -6.632085|   -7.032079|   -6.619673|   -6.586895|   -8.853719|    1.576240|
|        3747|  8.0478e+00|   -6.469503|   -6.637744|   -7.035085|   -6.624961|   -6.591650|   -8.863375|    1.576213|
|        3748|  8.0477e+00|   -6.475055|   -6.643425|   -7.037993|   -6.630258|   -6.596426|   -8.872936|    1.576188|
|        3749|  8.0476e+00|   -6.480559|   -6.649108|   -7.040791|   -6.635545|   -6.601209|   -8.882317|    1.576163|
|        3750|  8.0476e+00|   -6.485993|   -6.654776|   -7.043470|   -6.640806|   -6.605984|   -8.891423|    1.576138|
+-----------------------------------------------------------------------+
|        File Writing Summary       |              Filename             |
+-----------------------------------------------------------------------+
|SU2 binary restart                 |restart_flow.dat                   |
|Paraview                           |flow.vtu                           |
|Paraview surface                   |surface_flow.vtu                   |
+-----------------------------------------------------------------------+
+--------------------------------------------------------------------------------------------------------------------+
|  Inner_Iter|   Time(sec)|    rms[Rho]|   rms[RhoU]|   rms[RhoV]|   rms[RhoW]|   rms[RhoE]|     rms[nu]|          CD|
+--------------------------------------------------------------------------------------------------------------------+
|        3751|  8.0534e+00|   -6.491335|   -6.660409|   -7.046019|   -6.646022|   -6.610736|   -8.900150|    1.576114|
|        3752|  8.0537e+00|   -6.496562|   -6.665985|   -7.048431|   -6.651174|   -6.615448|   -8.908380|    1.576091|
|        3753|  8.0538e+00|   -6.501650|   -6.671484|   -7.050698|   -6.656241|   -6.620106|   -8.915988|    1.576068|
|        3754|  8.0538e+00|   -6.506576|   -6.676882|   -7.052812|   -6.661203|   -6.624693|   -8.922842|    1.576046|
|        3755|  8.0538e+00|   -6.511315|   -6.682156|   -7.054767|   -6.666038|   -6.629192|   -8.928807|    1.576025|
|        3756|  8.0538e+00|   -6.515842|   -6.687280|   -7.056557|   -6.670724|   -6.633583|   -8.933752|    1.576004|
|        3757|  8.0537e+00|   -6.520134|   -6.692229|   -7.058173|   -6.675239|   -6.637849|   -8.937552|    1.575984|
|        3758|  8.0537e+00|   -6.524163|   -6.696979|   -7.059609|   -6.679558|   -6.641969|   -8.940096|    1.575965|
|        3759|  8.0537e+00|   -6.527906|   -6.701501|   -7.060861|   -6.683659|   -6.645924|   -8.941296|    1.575947|
|        3760|  8.0537e+00|   -6.531342|   -6.705772|   -7.061926|   -6.687520|   -6.649697|   -8.941086|    1.575929|
|        3761|  8.0536e+00|   -6.534449|   -6.709765|   -7.062800|   -6.691118|   -6.653269|   -8.939434|    1.575912|
|        3762|  8.0536e+00|   -6.537209|   -6.713457|   -7.063484|   -6.694434|   -6.656621|   -8.936338|    1.575896|
|        3763|  8.0535e+00|   -6.539603|   -6.716825|   -7.063977|   -6.697448|   -6.659737|   -8.931829|    1.575880|
|        3764|  8.0535e+00|   -6.541619|   -6.719848|   -7.064281|   -6.700142|   -6.662600|   -8.925970|    1.575865|
|        3765|  8.0535e+00|   -6.543242|   -6.722508|   -7.064396|   -6.702500|   -6.665193|   -8.918849|    1.575852|
|        3766|  8.0534e+00|   -6.544468|   -6.724787|   -7.064328|   -6.704509|   -6.667507|   -8.910574|    1.575838|
|        3767|  8.0533e+00|   -6.545291|   -6.726673|   -7.064080|   -6.706157|   -6.669527|   -8.901270|    1.575826|
|        3768|  8.0533e+00|   -6.545710|   -6.728155|   -7.063659|   -6.707438|   -6.671244|   -8.891068|    1.575815|
|        3769|  8.0533e+00|   -6.545728|   -6.729225|   -7.063069|   -6.708345|   -6.672652|   -8.880101|    1.575804|
|        3770|  8.0532e+00|   -6.545351|   -6.729882|   -7.062318|   -6.708878|   -6.673744|   -8.868503|    1.575794|
|        3771|  8.0532e+00|   -6.544589|   -6.730126|   -7.061416|   -6.709037|   -6.674519|   -8.856398|    1.575785|
|        3772|  8.0532e+00|   -6.543453|   -6.729960|   -7.060369|   -6.708827|   -6.674975|   -8.843905|    1.575777|
|        3773|  8.0532e+00|   -6.541961|   -6.729393|   -7.059187|   -6.708255|   -6.675116|   -8.831129|    1.575769|
|        3774|  8.0532e+00|   -6.540130|   -6.728436|   -7.057880|   -6.707333|   -6.674946|   -8.818165|    1.575763|
|        3775|  8.0531e+00|   -6.537978|   -6.727103|   -7.056455|   -6.706072|   -6.674468|   -8.805098|    1.575757|
|        3776|  8.0530e+00|   -6.535526|   -6.725411|   -7.054924|   -6.704486|   -6.673691|   -8.792000|    1.575752|
|        3777|  8.0530e+00|   -6.532799|   -6.723379|   -7.053295|   -6.702594|   -6.672628|   -8.778934|    1.575748|
|        3778|  8.0530e+00|   -6.529824|   -6.721029|   -7.051582|   -6.700417|   -6.671293|   -8.765952|    1.575744|
|        3779|  8.0529e+00|   -6.526624|   -6.718386|   -7.049792|   -6.697973|   -6.669700|   -8.753099|    1.575742|
|        3780|  8.0529e+00|   -6.523221|   -6.715472|   -7.047935|   -6.695283|   -6.667860|   -8.740412|    1.575741|
|        3781|  8.0529e+00|   -6.519641|   -6.712313|   -7.046021|   -6.692369|   -6.665790|   -8.727920|    1.575740|
|        3782|  8.0529e+00|   -6.515910|   -6.708935|   -7.044060|   -6.689255|   -6.663509|   -8.715649|    1.575740|
|        3783|  8.0528e+00|   -6.512049|   -6.705363|   -7.042063|   -6.685963|   -6.661034|   -8.703617|    1.575741|
|        3784|  8.0528e+00|   -6.508084|   -6.701625|   -7.040040|   -6.682516|   -6.658383|   -8.691841|    1.575743|
|        3785|  8.0528e+00|   -6.504039|   -6.697744|   -7.038004|   -6.678939|   -6.655579|   -8.680331|    1.575745|
|        3786|  8.0528e+00|   -6.499933|   -6.693746|   -7.035960|   -6.675251|   -6.652636|   -8.669097|    1.575749|
|        3787|  8.0527e+00|   -6.495785|   -6.689653|   -7.033920|   -6.671474|   -6.649573|   -8.658146|    1.575753|
|        3788|  8.0527e+00|   -6.491616|   -6.685488|   -7.031890|   -6.667628|   -6.646409|   -8.647482|    1.575758|
|        3789|  8.0527e+00|   -6.487444|   -6.681273|   -7.029880|   -6.663734|   -6.643164|   -8.637106|    1.575764|
|        3790|  8.0526e+00|   -6.483289|   -6.677030|   -7.027900|   -6.659811|   -6.639855|   -8.627022|    1.575770|
|        3791|  8.0526e+00|   -6.479166|   -6.672777|   -7.025956|   -6.655877|   -6.636499|   -8.617227|    1.575778|
|        3792|  8.0525e+00|   -6.475091|   -6.668534|   -7.024056|   -6.651949|   -6.633114|   -8.607723|    1.575786|
|        3793|  8.0524e+00|   -6.471077|   -6.664316|   -7.022207|   -6.648043|   -6.629715|   -8.598507|    1.575795|
|        3794|  8.0524e+00|   -6.467136|   -6.660141|   -7.020414|   -6.644173|   -6.626315|   -8.589576|    1.575805|
|        3795|  8.0523e+00|   -6.463280|   -6.656022|   -7.018681|   -6.640352|   -6.622929|   -8.580929|    1.575815|
|        3796|  8.0523e+00|   -6.459519|   -6.651974|   -7.017017|   -6.636594|   -6.619569|   -8.572562|    1.575826|
|        3797|  8.0523e+00|   -6.455865|   -6.648008|   -7.015427|   -6.632910|   -6.616250|   -8.564472|    1.575838|
|        3798|  8.0522e+00|   -6.452325|   -6.644136|   -7.013916|   -6.629311|   -6.612981|   -8.556654|    1.575851|
|        3799|  8.0522e+00|   -6.448907|   -6.640369|   -7.012488|   -6.625807|   -6.609775|   -8.549107|    1.575864|
|        3800|  8.0521e+00|   -6.445619|   -6.636715|   -7.011148|   -6.622408|   -6.606640|   -8.541825|    1.575879|
|        3801|  8.0521e+00|   -6.442467|   -6.633183|   -7.009899|   -6.619120|   -6.603586|   -8.534806|    1.575893|
|        3802|  8.0520e+00|   -6.439457|   -6.629781|   -7.008745|   -6.615953|   -6.600621|   -8.528044|    1.575909|
|        3803|  8.0520e+00|   -6.436594|   -6.626515|   -7.007690|   -6.612912|   -6.597754|   -8.521537|    1.575925|
|        3804|  8.0519e+00|   -6.433883|   -6.623392|   -7.006736|   -6.610005|   -6.594990|   -8.515281|    1.575941|
|        3805|  8.0519e+00|   -6.431329|   -6.620418|   -7.005888|   -6.607237|   -6.592339|   -8.509272|    1.575959|
|        3806|  8.0518e+00|   -6.428937|   -6.617598|   -7.005148|   -6.604613|   -6.589806|   -8.503507|    1.575977|
|        3807|  8.0518e+00|   -6.426708|   -6.614936|   -7.004518|   -6.602138|   -6.587396|   -8.497981|    1.575995|
|        3808|  8.0517e+00|   -6.424648|   -6.612437|   -7.004001|   -6.599817|   -6.585115|   -8.492693|    1.576014|
|        3809|  8.0517e+00|   -6.422757|   -6.610103|   -7.003598|   -6.597653|   -6.582967|   -8.487637|    1.576034|
|        3810|  8.0516e+00|   -6.421040|   -6.607940|   -7.003311|   -6.595649|   -6.580957|   -8.482811|    1.576054|
|        3811|  8.0516e+00|   -6.419498|   -6.605950|   -7.003142|   -6.593809|   -6.579089|   -8.478213|    1.576075|
|        3812|  8.0515e+00|   -6.418133|   -6.604135|   -7.003092|   -6.592135|   -6.577366|   -8.473838|    1.576096|
|        3813|  8.0514e+00|   -6.416946|   -6.602498|   -7.003164|   -6.590630|   -6.575791|   -8.469684|    1.576118|
|        3814|  8.0513e+00|   -6.415941|   -6.601041|   -7.003359|   -6.589296|   -6.574368|   -8.465748|    1.576140|
|        3815|  8.0512e+00|   -6.415118|   -6.599767|   -7.003678|   -6.588136|   -6.573100|   -8.462028|    1.576163|
|        3816|  8.0512e+00|   -6.414478|   -6.598676|   -7.004120|   -6.587150|   -6.571988|   -8.458520|    1.576186|
|        3817|  8.0511e+00|   -6.414024|   -6.597771|   -7.004687|   -6.586341|   -6.571036|   -8.455222|    1.576209|
|        3818|  8.0510e+00|   -6.413755|   -6.597054|   -7.005379|   -6.585710|   -6.570244|   -8.452132|    1.576233|
|        3819|  8.0509e+00|   -6.413672|   -6.596524|   -7.006193|   -6.585257|   -6.569614|   -8.449248|    1.576257|
|        3820|  8.0508e+00|   -6.413774|   -6.596183|   -7.007129|   -6.584985|   -6.569147|   -8.446566|    1.576281|
|        3821|  8.0508e+00|   -6.414064|   -6.596032|   -7.008189|   -6.584893|   -6.568845|   -8.444086|    1.576306|
|        3822|  8.0507e+00|   -6.414541|   -6.596071|   -7.009373|   -6.584983|   -6.568708|   -8.441805|    1.576331|
|        3823|  8.0506e+00|   -6.415206|   -6.596302|   -7.010680|   -6.585255|   -6.568738|   -8.439722|    1.576357|
|        3824|  8.0505e+00|   -6.416060|   -6.596724|   -7.012109|   -6.585710|   -6.568937|   -8.437834|    1.576382|
|        3825|  8.0504e+00|   -6.417101|   -6.597337|   -7.013661|   -6.586348|   -6.569303|   -8.436139|    1.576408|
|        3826|  8.0503e+00|   -6.418331|   -6.598144|   -7.015333|   -6.587170|   -6.569838|   -8.434638|    1.576434|
|        3827|  8.0502e+00|   -6.419749|   -6.599142|   -7.017124|   -6.588174|   -6.570543|   -8.433327|    1.576460|
|        3828|  8.0502e+00|   -6.421355|   -6.600334|   -7.019033|   -6.589363|   -6.571416|   -8.432205|    1.576487|
|        3829|  8.0501e+00|   -6.423149|   -6.601718|   -7.021058|   -6.590734|   -6.572460|   -8.431272|    1.576514|
|        3830|  8.0500e+00|   -6.425130|   -6.603295|   -7.023197|   -6.592289|   -6.573673|   -8.430525|    1.576540|
|        3831|  8.0499e+00|   -6.427297|   -6.605064|   -7.025447|   -6.594026|   -6.575054|   -8.429965|    1.576567|
|        3832|  8.0499e+00|   -6.429650|   -6.607025|   -7.027805|   -6.595944|   -6.576603|   -8.429588|    1.576594|
|        3833|  8.0498e+00|   -6.432185|   -6.609177|   -7.030268|   -6.598044|   -6.578318|   -8.429396|    1.576621|
|        3834|  8.0497e+00|   -6.434903|   -6.611520|   -7.032834|   -6.600323|   -6.580200|   -8.429386|    1.576648|
|        3835|  8.0497e+00|   -6.437802|   -6.614051|   -7.035500|   -6.602781|   -6.582246|   -8.429558|    1.576675|
|        3836|  8.0497e+00|   -6.440882|   -6.616771|   -7.038262|   -6.605417|   -6.584458|   -8.429911|    1.576702|
|        3837|  8.0496e+00|   -6.444140|   -6.619679|   -7.041116|   -6.608230|   -6.586832|   -8.430443|    1.576729|
|        3838|  8.0495e+00|   -6.447573|   -6.622771|   -7.044058|   -6.611218|   -6.589368|   -8.431155|    1.576756|
|        3839|  8.0495e+00|   -6.451180|   -6.626048|   -7.047083|   -6.614378|   -6.592063|   -8.432046|    1.576782|
|        3840|  8.0494e+00|   -6.454959|   -6.629508|   -7.050188|   -6.617710|   -6.594918|   -8.433114|    1.576809|
|        3841|  8.0493e+00|   -6.458908|   -6.633149|   -7.053366|   -6.621211|   -6.597928|   -8.434359|    1.576836|
|        3842|  8.0493e+00|   -6.463021|   -6.636968|   -7.056611|   -6.624878|   -6.601092|   -8.435781|    1.576862|
|        3843|  8.0492e+00|   -6.467296|   -6.640963|   -7.059919|   -6.628708|   -6.604407|   -8.437378|    1.576888|
|        3844|  8.0492e+00|   -6.471728|   -6.645131|   -7.063280|   -6.632698|   -6.607869|   -8.439151|    1.576915|
|        3845|  8.0491e+00|   -6.476312|   -6.649468|   -7.066689|   -6.636844|   -6.611476|   -8.441098|    1.576940|
|        3846|  8.0491e+00|   -6.481044|   -6.653972|   -7.070139|   -6.641142|   -6.615222|   -8.443219|    1.576966|
|        3847|  8.0490e+00|   -6.485917|   -6.658637|   -7.073623|   -6.645587|   -6.619106|   -8.445514|    1.576992|
|        3848|  8.0490e+00|   -6.490926|   -6.663460|   -7.077131|   -6.650174|   -6.623123|   -8.447981|    1.577017|
|        3849|  8.0489e+00|   -6.496063|   -6.668434|   -7.080656|   -6.654896|   -6.627266|   -8.450621|    1.577042|
|        3850|  8.0488e+00|   -6.501320|   -6.673554|   -7.084189|   -6.659747|   -6.631531|   -8.453433|    1.577067|
|        3851|  8.0488e+00|   -6.506690|   -6.678814|   -7.087720|   -6.664722|   -6.635913|   -8.456416|    1.577091|
|        3852|  8.0488e+00|   -6.512160|   -6.684206|   -7.091237|   -6.669811|   -6.640403|   -8.459570|    1.577115|
|        3853|  8.0487e+00|   -6.517722|   -6.689722|   -7.094734|   -6.675007|   -6.644996|   -8.462895|    1.577139|
|        3854|  8.0486e+00|   -6.523362|   -6.695353|   -7.098198|   -6.680300|   -6.649681|   -8.466389|    1.577162|
|        3855|  8.0486e+00|   -6.529067|   -6.701087|   -7.101620|   -6.685680|   -6.654452|   -8.470053|    1.577185|
|        3856|  8.0485e+00|   -6.534823|   -6.706912|   -7.104988|   -6.691132|   -6.659296|   -8.473885|    1.577207|
|        3857|  8.0485e+00|   -6.540614|   -6.712815|   -7.108292|   -6.696646|   -6.664203|   -8.477884|    1.577229|
|        3858|  8.0484e+00|   -6.546422|   -6.718781|   -7.111520|   -6.702208|   -6.669162|   -8.482050|    1.577251|
|        3859|  8.0484e+00|   -6.552229|   -6.724795|   -7.114660|   -6.707800|   -6.674161|   -8.486379|    1.577272|
|        3860|  8.0483e+00|   -6.558015|   -6.730838|   -7.117700|   -6.713408|   -6.679184|   -8.490871|    1.577293|
|        3861|  8.0483e+00|   -6.563757|   -6.736891|   -7.120633|   -6.719012|   -6.684218|   -8.495524|    1.577313|
|        3862|  8.0482e+00|   -6.569435|   -6.742936|   -7.123447|   -6.724594|   -6.689248|   -8.500336|    1.577333|
|        3863|  8.0482e+00|   -6.575024|   -6.748949|   -7.126128|   -6.730133|   -6.694257|   -8.505305|    1.577352|
|        3864|  8.0482e+00|   -6.580499|   -6.754908|   -7.128667|   -6.735609|   -6.699230|   -8.510429|    1.577371|
|        3865|  8.0481e+00|   -6.585836|   -6.760789|   -7.131051|   -6.740998|   -6.704147|   -8.515704|    1.577389|
|        3866|  8.0481e+00|   -6.591006|   -6.766565|   -7.133271|   -6.746277|   -6.708990|   -8.521129|    1.577407|
|        3867|  8.0481e+00|   -6.595982|   -6.772209|   -7.135320|   -6.751421|   -6.713738|   -8.526700|    1.577424|
|        3868|  8.0481e+00|   -6.600735|   -6.777694|   -7.137189|   -6.756406|   -6.718373|   -8.532414|    1.577440|
|        3869|  8.0480e+00|   -6.605239|   -6.782989|   -7.138871|   -6.761205|   -6.722872|   -8.538268|    1.577456|
|        3870|  8.0480e+00|   -6.609466|   -6.788064|   -7.140358|   -6.765792|   -6.727216|   -8.544257|    1.577472|
|        3871|  8.0480e+00|   -6.613388|   -6.792889|   -7.141645|   -6.770141|   -6.731381|   -8.550377|    1.577486|
|        3872|  8.0479e+00|   -6.616979|   -6.797434|   -7.142731|   -6.774227|   -6.735347|   -8.556624|    1.577500|
|        3873|  8.0479e+00|   -6.620216|   -6.801669|   -7.143613|   -6.778024|   -6.739094|   -8.562992|    1.577514|
