Nodes:  tri[0119,0934]
Tasks:  128
NPN:    64
Config: /scratch/anthonyy/reentry/orion/config/generated/m3_aoa15.cfg

-------------------------------------------------------------------------
|    ___ _   _ ___                                                      |
|   / __| | | |_  )   Release 7.5.1 "Blackbird"                         |
|   \__ \ |_| |/ /                                                      |
|   |___/\___//___|   Suite (Computational Fluid Dynamics Code)         |
|                                                                       |
-------------------------------------------------------------------------
| SU2 Project Website: https://su2code.github.io                        |
|                                                                       |
| The SU2 Project is maintained by the SU2 Foundation                   |
| (http://su2foundation.org)                                            |
-------------------------------------------------------------------------
| Copyright 2012-2023, SU2 Contributors                                 |
|                                                                       |
| SU2 is free software; you can redistribute it and/or                  |
| modify it under the terms of the GNU Lesser General Public            |
| License as published by the Free Software Foundation; either          |
| version 2.1 of the License, or (at your option) any later version.    |
|                                                                       |
| SU2 is distributed in the hope that it will be useful,                |
| but WITHOUT ANY WARRANTY; without even the implied warranty of        |
| MERCHANTABILITY or FITNESS FOR A PARTICULAR PURPOSE. See the GNU      |
| Lesser General Public License for more details.                       |
|                                                                       |
| You should have received a copy of the GNU Lesser General Public      |
| License along with SU2. If not, see <http://www.gnu.org/licenses/>.   |
-------------------------------------------------------------------------

Parsing config file for zone 0

----------------- Physical Case Definition ( Zone 0 ) -------------------
Compressible RANS equations.
Turbulence model: Spalart-Allmaras-noft2
Hybrid RANS/LES: No Hybrid RANS/LES
Mach number: 3.
Angle of attack (AoA): 15 deg, and angle of sideslip (AoS): 0 deg.
Reynolds number: 3.43114e+08. Reference length 5.
No restart solution, use the values at infinity (freestream).
Non-Dimensional simulation (V=1.0, Rho=1.0, T=1.0 at the farfield).
The reference area will be computed using y(2D) or z(3D) projection.
The semi-span will be computed using the max y(3D) value.
The reference length is 0.64607 m.
Reference origin for moment evaluation is (0.25, 0, 0).
Surface(s) where the force coefficients are evaluated: ORION_SURFACE.

Input mesh file name: ../../mesh/fine.su2

--------------- Space Numerical Integration ( Zone 0 ) ------------------
Jameson-Schmidt-Turkel scheme (2nd order in space) for the flow inviscid terms.
JST viscous coefficients (2nd & 4th): 0.5, 0.02.
The method includes a grid stretching correction (p = 0.3).
Scalar upwind solver for the turbulence model.
First order integration in space.
Average of gradients with correction (viscous flow terms).
Average of gradients with correction (viscous turbulence terms).
Gradient for upwind reconstruction: Green-Gauss.
Gradient for viscous and source terms: Green-Gauss.

--------------- Time Numerical Integration  ( Zone 0 ) ------------------
Local time stepping (steady state simulation).
Euler implicit method for the flow equations.
FGMRES is used for solving the linear system.
Using a ILU(0) preconditioning.
Convergence criteria of the linear solver: 1e-06.
Max number of linear iterations: 100.
CFL adaptation. Factor down: 0.5, factor up: 1.2,
                lower limit: 0.1, upper limit: 3,
                acceptable linear residual: 0.001.
Courant-Friedrichs-Lewy number:        1
Euler implicit time integration for the turbulence model.

------------------ Convergence Criteria  ( Zone 0 ) ---------------------
Maximum number of solver subiterations: 999999.
Begin convergence monitoring at iteration 5.
Residual minimum value: 1e-8.
Cauchy series min. value: 1e-10.
Number of Cauchy elements: 100.
Begin windowed time average at iteration 0.

-------------------- Output Information ( Zone 0 ) ----------------------
File writing frequency: 
+------------------------------------+
|                     File| Frequency|
+------------------------------------+
|                  RESTART|       150|
|                 PARAVIEW|       150|
|         SURFACE_PARAVIEW|       150|
+------------------------------------+
Writing the convergence history file every 1 inner iterations.
Writing the screen convergence history every 1 inner iterations.
The tabular file format is CSV (.csv).
Convergence history file name: history.
Forces breakdown file name: forces_breakdown.dat.
Surface file name: surface_flow.
Volume file name: flow.
Restart file name: restart_flow.

------------- Config File Boundary Information ( Zone 0 ) ---------------
+-----------------------------------------------------------------------+
|                        Marker Type|                        Marker Name|
+-----------------------------------------------------------------------+
|                          Far-field|                           FARFIELD|
+-----------------------------------------------------------------------+
|                     Heat flux wall|                      ORION_SURFACE|
+-----------------------------------------------------------------------+

-------------------- Output Preprocessing ( Zone 0 ) --------------------

WARNING: SURFACE_PRESSURE_DROP can only be computed for at least 2 surfaces (outlet, inlet, ...)

Screen output fields: INNER_ITER, WALL_TIME, RMS_DENSITY, RMS_MOMENTUM-X, RMS_MOMENTUM-Y, RMS_MOMENTUM-Z, RMS_ENERGY, RMS_NU_TILDE, DRAG
History output group(s): ITER, RMS_RES
Convergence field(s): RMS_DENSITY
Warning: No (valid) fields chosen for time convergence monitoring. Time convergence monitoring inactive.
Volume output fields: MACH, PRESSURE, TEMPERATURE, DENSITY, HEAT_FLUX, Y_PLUS, COORDINATES, SOLUTION

------------------- Geometry Preprocessing ( Zone 0 ) -------------------
Three dimensional problem.
62211324 grid points before partitioning.
190879888 volume elements before partitioning.
2 surface markers.
4104 boundary elements in index 0 (Marker = FARFIELD).
1824836 boundary elements in index 1 (Marker = ORION_SURFACE).
Executing the partitioning functions.
Building the graph adjacency structure.
Calling ParMETIS... graph partitioning complete (4959327 edge cuts).
Distributing ParMETIS coloring.
Rebalancing vertices.
Rebalancing volume element connectivity.
Rebalancing markers and surface elements.
66952290 vertices including ghost points. 
197997438 interior elements including halo cells. 
103171259 tetrahedra.
94500655 prisms.
325524 pyramids.
Establishing MPI communication patterns.
Setting point connectivity.
Renumbering points (Reverse Cuthill McKee Ordering).
Recomputing point connectivity.
Setting element connectivity.
Checking the numerical grid orientation.
All volume elements are correctly orientend.
All surface elements are correctly orientend.
Identifying edges and vertices.
Setting the control volume structure.
Volume of the computational grid: 535693.
Searching for the closest normal neighbors to the surfaces.
Storing a mapping from global to local point index.
Compute the surface curvature.
Max K: 132.896. Mean K: 3.9104. Standard deviation K: 7.49569.
Checking for periodicity.
Computing mesh quality statistics for the dual control volumes.
+--------------------------------------------------------------+
|           Mesh Quality Metric|        Minimum|        Maximum|
+--------------------------------------------------------------+
|    Orthogonality Angle (deg.)|        53.0661|             90|
|     CV Face Area Aspect Ratio|        1.01143|        75298.5|
|           CV Sub-Volume Ratio|        1.00029|        45.0258|
+--------------------------------------------------------------+
Finding max control volume width.
Communicating number of neighbors.
Reference area = 11.531 m^2.
Semi-span length = 2.49999 m.
Wetted area = 57.9072 m^2.
Area projection in the x-plane = 19.6343 m^2, y-plane = 11.531 m^2, z-plane = 11.531 m^2.
Max. coordinate in the x-direction = 2.575 m, y-direction = 2.49999 m, z-direction = 2.49999 m.
Min. coordinate in the x-direction = -0.71 m, y-direction = -2.49999 m, z-direction = -2.5 m.
Computing wall distances.

-------------------- Solver Preprocessing ( Zone 0 ) --------------------
Viscous flow: Computing pressure using the ideal gas law
based on the free-stream temperature and a density computed
from the Reynolds number.
Force coefficients computed using free-stream values.

-- Models:
+------------------------------------------------------------------------------+
|          Viscosity Model|        Conductivity Model|              Fluid Model|
+------------------------------------------------------------------------------+
|               SUTHERLAND|          CONSTANT_PRANDTL|             STANDARD_AIR|
+------------------------------------------------------------------------------+
-- Fluid properties:
+------------------------------------------------------------------------------+
|                  Name|    Dim. value|    Ref. value|      Unit|Non-dim. value|
+------------------------------------------------------------------------------+
|        Ref. Viscosity|     1.716e-05|       1227.87|   N.s/m^2|   1.39755e-08|
|      Sutherland Temp.|        273.15|        288.15|         K|      0.947944|
|     Sutherland Const.|         110.4|        288.15|         K|      0.383134|
+------------------------------------------------------------------------------+
|        Prandtl (Lam.)|             -|             -|         -|          0.72|
|       Prandtl (Turb.)|             -|             -|         -|           0.9|
+------------------------------------------------------------------------------+
|          Gas Constant|       287.058|       3616.93|  N.m/kg.K|     0.0793651|
|      Spec. Heat Ratio|             -|             -|         -|           1.4|
+------------------------------------------------------------------------------+
-- Initial and free-stream conditions:
+------------------------------------------------------------------------------+
|                  Name|    Dim. value|    Ref. value|      Unit|Non-dim. value|
+------------------------------------------------------------------------------+
|       Static Pressure|       99485.6|   1.25352e+06|        Pa|     0.0793651|
|               Density|       1.20274|       1.20274|    kg/m^3|             1|
|           Temperature|        288.15|        288.15|         K|             1|
|          Total Energy|        727899|   1.04222e+06|   m^2/s^2|      0.698413|
|            Velocity-X|       986.105|       1020.89|       m/s|      0.965926|
|            Velocity-Y|             0|       1020.89|       m/s|             0|
|            Velocity-Z|       264.226|       1020.89|       m/s|      0.258819|
|    Velocity Magnitude|       1020.89|       1020.89|       m/s|             1|
+------------------------------------------------------------------------------+
|             Viscosity|    1.7893e-05|       1227.87|   N.s/m^2|   1.45724e-08|
|          Conductivity|             -|   4.44111e+06|   W/m^2.K|             -|
|     Turb. Kin. Energy|       3908.32|   1.04222e+06|   m^2/s^2|       0.00375|
|     Spec. Dissipation|   2.62712e+07|       1020.89|       1/s|       25733.6|
+------------------------------------------------------------------------------+
|           Mach Number|             -|             -|         -|             3|
|       Reynolds Number|             -|             -|         -|   3.43114e+08|
+------------------------------------------------------------------------------+
Initialize Jacobian structure (Navier-Stokes). MG level: 0.
Initialize Jacobian structure (SA model).

------------------- Numerics Preprocessing ( Zone 0 ) -------------------

----------------- Integration Preprocessing ( Zone 0 ) ------------------

------------------- Iteration Preprocessing ( Zone 0 ) ------------------
Euler/Navier-Stokes/RANS fluid iteration.

------------------------------ Begin Solver -----------------------------

Simulation Run using the Single-zone Driver
WARNING: SU2 was not compiled for an AVX-capable architecture. Performance could be better,
         see https://su2code.github.io/docs_v7/Build-SU2-Linux-MacOS/#compiler-optimizations
+--------------------------------------------------------------------------------------------------------------------+
|  Inner_Iter|   Time(sec)|    rms[Rho]|   rms[RhoU]|   rms[RhoV]|   rms[RhoW]|   rms[RhoE]|     rms[nu]|          CD|
+--------------------------------------------------------------------------------------------------------------------+
|           0|  9.7148e+00|   -5.257098|  -15.959565|  -17.047417|  -16.512385|   -5.366242|  -12.787161|    0.770658|
|           1|  8.6042e+00|   -5.405028|   -5.452085|   -6.441440|   -5.963260|   -5.520994|  -12.782705|    1.091448|
|           2|  8.1783e+00|   -5.408364|   -5.514568|   -6.525439|   -6.001243|   -5.509826|  -12.961424|    1.423938|
|           3|  7.9493e+00|   -5.401054|   -5.562822|   -6.534527|   -6.025030|   -5.491211|  -13.080749|    1.786138|
|           4|  7.9306e+00|   -5.389577|   -5.617901|   -6.501924|   -6.050649|   -5.470201|  -13.163956|    2.192830|
|           5|  8.0167e+00|   -5.379066|   -5.690670|   -6.456848|   -6.086193|   -5.451640|  -13.226233|    2.656043|
|           6|  8.1758e+00|   -5.373072|   -5.779541|   -6.405691|   -6.124892|   -5.439958|  -13.271946|    3.177093|
|           7|  8.2961e+00|   -5.375208|   -5.850778|   -6.340030|   -6.138906|   -5.440024|  -13.297643|    3.727919|
|           8|  8.4571e+00|   -5.394968|   -5.855358|   -6.259401|   -6.108150|   -5.461683|  -13.291710|    4.314754|
|           9|  8.5819e+00|   -5.436624|   -5.802158|   -6.172141|   -6.052327|   -5.507775|  -13.263756|    4.874911|
|          10|  8.6950e+00|   -5.490976|   -5.728349|   -6.092097|   -5.994280|   -5.570047|  -13.231736|    5.279983|
|          11|  8.8580e+00|   -5.507041|   -5.660370|   -6.030737|   -5.948676|   -5.583498|  -13.212884|    5.349758|
|          12|  8.9853e+00|   -5.455127|   -5.624750|   -5.998056|   -5.913375|   -5.507887|  -13.189595|    5.001170|
|          13|  9.0936e+00|   -5.386733|   -5.640540|   -5.984615|   -5.872011|   -5.420132|  -13.174704|    4.324013|
|          14|  9.1546e+00|   -5.335688|   -5.709481|   -5.967000|   -5.828906|   -5.360275|  -13.176740|    3.551983|
|          15|  9.2086e+00|   -5.312470|   -5.791467|   -5.934963|   -5.805942|   -5.334515|  -13.168198|    2.869568|
|          16|  9.2861e+00|   -5.319273|   -5.793727|   -5.911257|   -5.811369|   -5.341858|  -13.135179|    2.399821|
|          17|  9.3552e+00|   -5.350261|   -5.744719|   -5.913185|   -5.836237|   -5.374981|  -13.088510|    2.212827|
|          18|  9.4215e+00|   -5.391589|   -5.718028|   -5.935895|   -5.863083|   -5.421647|  -13.054711|    2.294412|
|          19|  9.4766e+00|   -5.420239|   -5.720548|   -5.960049|   -5.876426|   -5.459389|  -13.044605|    2.547623|
|          20|  9.5279e+00|   -5.426829|   -5.745806|   -5.975968|   -5.883409|   -5.470218|  -13.052527|    2.869224|
|          21|  9.5812e+00|   -5.416522|   -5.780353|   -5.982461|   -5.892050|   -5.455514|  -13.053210|    3.170950|
|          22|  9.6368e+00|   -5.414695|   -5.803002|   -5.993562|   -5.904242|   -5.452207|  -13.044900|    3.398076|
|          23|  9.6846e+00|   -5.429421|   -5.821715|   -6.009227|   -5.917109|   -5.469303|  -13.030852|    3.519643|
|          24|  9.7151e+00|   -5.443570|   -5.846215|   -6.021561|   -5.922552|   -5.485821|  -13.009301|    3.537947|
|          25|  9.7454e+00|   -5.455535|   -5.856139|   -6.023148|   -5.916705|   -5.503632|  -12.983786|    3.489772|
|          26|  9.7788e+00|   -5.458741|   -5.828770|   -6.010152|   -5.903530|   -5.512695|  -12.967518|    3.430509|
|          27|  9.8142e+00|   -5.449529|   -5.799644|   -5.993723|   -5.891788|   -5.501992|  -12.963150|    3.402716|
|          28|  9.8398e+00|   -5.431437|   -5.792029|   -5.983317|   -5.888567|   -5.477819|  -12.963832|    3.419666|
|          29|  9.8664e+00|   -5.418854|   -5.801572|   -5.984580|   -5.893855|   -5.460751|  -12.958225|    3.470209|
|          30|  9.8884e+00|   -5.416769|   -5.822523|   -5.993097|   -5.900874|   -5.455531|  -12.951346|    3.530464|
|          31|  9.9058e+00|   -5.422782|   -5.843453|   -6.001571|   -5.902858|   -5.460722|  -12.938673|    3.576642|
|          32|  9.9308e+00|   -5.433992|   -5.843971|   -6.003227|   -5.897314|   -5.476328|  -12.915182|    3.594345|
|          33|  9.9504e+00|   -5.440854|   -5.814903|   -5.994635|   -5.887900|   -5.489672|  -12.895445|    3.582495|
|          34|  9.9740e+00|   -5.437260|   -5.783317|   -5.983002|   -5.881091|   -5.486744|  -12.888961|    3.551934|
|          35|  9.9913e+00|   -5.423443|   -5.775701|   -5.976575|   -5.882310|   -5.467902|  -12.894103|    3.519235|
|          36|  1.0005e+01|   -5.411396|   -5.786903|   -5.980319|   -5.889385|   -5.451175|  -12.893204|    3.498351|
|          37|  1.0022e+01|   -5.409141|   -5.805812|   -5.990270|   -5.895379|   -5.445719|  -12.892862|    3.495285|
|          38|  1.0039e+01|   -5.416234|   -5.817863|   -5.999767|   -5.895084|   -5.452551|  -12.889043|    3.507621|
|          39|  1.0051e+01|   -5.428171|   -5.808353|   -6.001245|   -5.888370|   -5.469314|  -12.869360|    3.527682|
|          40|  1.0068e+01|   -5.433743|   -5.772374|   -5.991761|   -5.879915|   -5.480816|  -12.846726|    3.547043|
|          41|  1.0079e+01|   -5.427195|   -5.732302|   -5.980090|   -5.874072|   -5.474514|  -12.834760|    3.560171|
|          42|  1.0095e+01|   -5.410857|   -5.711284|   -5.975071|   -5.873469|   -5.453568|  -12.836710|    3.565733|
|          43|  1.0109e+01|   -5.395237|   -5.703213|   -5.978409|   -5.874728|   -5.433385|  -12.832047|    3.565829|
|          44|  1.0121e+01|   -5.387581|   -5.694133|   -5.986288|   -5.872697|   -5.422031|  -12.826071|    3.564089|
|          45|  1.0133e+01|   -5.389158|   -5.675737|   -5.993864|   -5.864909|   -5.422559|  -12.821023|    3.563606|
|          46|  1.0143e+01|   -5.395318|   -5.644785|   -5.993412|   -5.853364|   -5.432177|  -12.801743|    3.565683|
|          47|  1.0152e+01|   -5.394992|   -5.602541|   -5.982753|   -5.841214|   -5.436542|  -12.775134|    3.569858|
|          48|  1.0164e+01|   -5.382843|   -5.559550|   -5.970248|   -5.829476|   -5.425294|  -12.753834|    3.574795|
|          49|  1.0170e+01|   -5.361516|   -5.527539|   -5.963511|   -5.819094|   -5.401201|  -12.745916|    3.579302|
|          50|  1.0174e+01|   -5.339623|   -5.504237|   -5.963211|   -5.808887|   -5.376281|  -12.736548|    3.582909|
|          51|  1.0178e+01|   -5.324440|   -5.482580|   -5.966503|   -5.796798|   -5.358806|  -12.725461|    3.585841|
|          52|  1.0185e+01|   -5.318069|   -5.459321|   -5.969687|   -5.782953|   -5.352416|  -12.718505|    3.588593|
|          53|  1.0191e+01|   -5.316788|   -5.433898|   -5.966330|   -5.769010|   -5.354822|  -12.704355|    3.591451|
|          54|  1.0199e+01|   -5.311861|   -5.406273|   -5.954633|   -5.755678|   -5.355022|  -12.682915|    3.594264|
|          55|  1.0208e+01|   -5.298988|   -5.379329|   -5.941262|   -5.742550|   -5.345142|  -12.662739|    3.596601|
|          56|  1.0215e+01|   -5.280021|   -5.358312|   -5.932513|   -5.730448|   -5.326244|  -12.652182|    3.598133|
|          57|  1.0220e+01|   -5.260475|   -5.343512|   -5.929022|   -5.719845|   -5.305694|  -12.645287|    3.598948|
|          58|  1.0229e+01|   -5.246415|   -5.331516|   -5.929124|   -5.710508|   -5.290876|  -12.638333|    3.599576|
|          59|  1.0237e+01|   -5.240491|   -5.319856|   -5.930401|   -5.702401|   -5.285891|  -12.636117|    3.600723|
|          60|  1.0244e+01|   -5.240406|   -5.307794|   -5.927846|   -5.695527|   -5.289703|  -12.631194|    3.602866|
|          61|  1.0251e+01|   -5.239318|   -5.294781|   -5.919129|   -5.689289|   -5.293804|  -12.619772|    3.605968|
|          62|  1.0258e+01|   -5.232855|   -5.281800|   -5.908488|   -5.682737|   -5.290888|  -12.606377|    3.609455|
|          63|  1.0266e+01|   -5.221397|   -5.271982|   -5.901005|   -5.676503|   -5.280080|  -12.597807|    3.612495|
|          64|  1.0273e+01|   -5.208477|   -5.266560|   -5.897819|   -5.671782|   -5.266038|  -12.595134|    3.614428|
|          65|  1.0279e+01|   -5.199424|   -5.263609|   -5.898155|   -5.669158|   -5.255801|  -12.593851|    3.615113|
|          66|  1.0284e+01|   -5.197218|   -5.260907|   -5.900470|   -5.668082|   -5.253870|  -12.596575|    3.615007|
|          67|  1.0288e+01|   -5.200971|   -5.257597|   -5.900787|   -5.667779|   -5.260633|  -12.598696|    3.614932|
|          68|  1.0294e+01|   -5.204932|   -5.253143|   -5.896067|   -5.667205|   -5.269083|  -12.594834|    3.615662|
|          69|  1.0298e+01|   -5.204318|   -5.247944|   -5.888683|   -5.665355|   -5.271694|  -12.586920|    3.617546|
|          70|  1.0304e+01|   -5.198543|   -5.244314|   -5.883012|   -5.662788|   -5.266315|  -12.579663|    3.620358|
|          71|  1.0307e+01|   -5.190186|   -5.244071|   -5.880670|   -5.661406|   -5.256140|  -12.578380|    3.623424|
|          72|  1.0311e+01|   -5.184253|   -5.246170|   -5.881630|   -5.662327|   -5.248089|  -12.580398|    3.625973|
|          73|  1.0316e+01|   -5.184173|   -5.248375|   -5.884891|   -5.664643|   -5.247223|  -12.585798|    3.627507|
|          74|  1.0319e+01|   -5.190144|   -5.249627|   -5.887134|   -5.667162|   -5.255135|  -12.592000|    3.628031|
|          75|  1.0322e+01|   -5.197349|   -5.249433|   -5.884994|   -5.668690|   -5.266186|  -12.592673|    3.628021|
|          76|  1.0327e+01|   -5.200385|   -5.247953|   -5.879519|   -5.668344|   -5.272284|  -12.587965|    3.628162|
|          77|  1.0331e+01|   -5.197878|   -5.246977|   -5.874551|   -5.666732|   -5.270166|  -12.581073|    3.629011|
|          78|  1.0337e+01|   -5.191787|   -5.248784|   -5.872239|   -5.666216|   -5.261927|  -12.578647|    3.630741|
|          79|  1.0341e+01|   -5.186822|   -5.253145|   -5.873116|   -5.668175|   -5.254183|  -12.581335|    3.633091|
|          80|  1.0345e+01|   -5.186875|   -5.257765|   -5.876477|   -5.671550|   -5.252566|  -12.587367|    3.635519|
|          81|  1.0348e+01|   -5.193152|   -5.261227|   -5.879652|   -5.674824|   -5.259809|  -12.595607|    3.637485|
|          82|  1.0351e+01|   -5.201915|   -5.262997|   -5.879154|   -5.676781|   -5.271937|  -12.599039|    3.638706|
|          83|  1.0353e+01|   -5.207191|   -5.263107|   -5.874949|   -5.676706|   -5.280449|  -12.596214|    3.639264|
|          84|  1.0356e+01|   -5.206626|   -5.262862|   -5.870264|   -5.675219|   -5.280761|  -12.589329|    3.639542|
|          85|  1.0358e+01|   -5.201553|   -5.264856|   -5.867675|   -5.674655|   -5.273810|  -12.584428|    3.640008|
|          86|  1.0362e+01|   -5.196229|   -5.269725|   -5.868158|   -5.676527|   -5.265525|  -12.585473|    3.640990|
|          87|  1.0366e+01|   -5.194956|   -5.275352|   -5.871341|   -5.679957|   -5.262068|  -12.590286|    3.642536|
|          88|  1.0367e+01|   -5.199842|   -5.279814|   -5.875178|   -5.683243|   -5.267147|  -12.598580|    3.644411|
|          89|  1.0371e+01|   -5.208670|   -5.282437|   -5.876334|   -5.685206|   -5.278989|  -12.603704|    3.646240|
|          90|  1.0373e+01|   -5.215349|   -5.283167|   -5.873765|   -5.685330|   -5.289378|  -12.602465|    3.647698|
|          91|  1.0375e+01|   -5.216290|   -5.282844|   -5.869795|   -5.684091|   -5.292113|  -12.596231|    3.648656|
|          92|  1.0377e+01|   -5.212037|   -5.284047|   -5.867140|   -5.683263|   -5.286696|  -12.589390|    3.649223|
|          93|  1.0381e+01|   -5.206169|   -5.288350|   -5.867182|   -5.684533|   -5.277862|  -12.587922|    3.649672|
|          94|  1.0384e+01|   -5.203313|   -5.294288|   -5.869822|   -5.687558|   -5.272234|  -12.591288|    3.650292|
|          95|  1.0385e+01|   -5.206321|   -5.299396|   -5.873430|   -5.690558|   -5.274268|  -12.599031|    3.651251|
|          96|  1.0385e+01|   -5.214802|   -5.302609|   -5.875119|   -5.692368|   -5.284678|  -12.605972|    3.652527|
|          97|  1.0387e+01|   -5.223213|   -5.303751|   -5.873044|   -5.692653|   -5.296597|  -12.606840|    3.653938|
|          98|  1.0389e+01|   -5.226411|   -5.303281|   -5.868693|   -5.691673|   -5.302183|  -12.601852|    3.655248|
|          99|  1.0390e+01|   -5.223622|   -5.303285|   -5.864895|   -5.690411|   -5.299050|  -12.593737|    3.656278|
|         100|  1.0392e+01|   -5.217454|   -5.306197|   -5.863590|   -5.690700|   -5.290225|  -12.588622|    3.656989|
|         101|  1.0393e+01|   -5.212633|   -5.311676|   -5.865234|   -5.692993|   -5.282431|  -12.589235|    3.657487|
|         102|  1.0396e+01|   -5.212734|   -5.316980|   -5.868646|   -5.695715|   -5.280833|  -12.594487|    3.657954|
|         103|  1.0400e+01|   -5.219092|   -5.320410|   -5.871339|   -5.697576|   -5.288208|  -12.602049|    3.658556|
|         104|  1.0356e+01|   -5.227940|   -5.321658|   -5.870852|   -5.698269|   -5.300470|  -12.602548|    3.658601|
|         105|  1.0313e+01|   -5.226628|   -5.321666|   -5.869154|   -5.696615|   -5.298948|  -12.600732|    3.658654|
|         106|  1.0270e+01|   -5.225038|   -5.321697|   -5.867104|   -5.694588|   -5.297109|  -12.598607|    3.658718|
|         107|  1.0228e+01|   -5.223151|   -5.321753|   -5.864660|   -5.692140|   -5.294941|  -12.596150|    3.658794|
|         108|  1.0187e+01|   -5.220943|   -5.321832|   -5.861770|   -5.689215|   -5.292431|  -12.593362|    3.658885|
|         109|  1.0147e+01|   -5.218378|   -5.321924|   -5.858376|   -5.685753|   -5.289563|  -12.590285|    3.658993|
|         110|  1.0113e+01|   -5.215458|   -5.321989|   -5.854469|   -5.681747|   -5.286398|  -12.587022|    3.659124|
|         111|  1.0079e+01|   -5.212224|   -5.321940|   -5.850076|   -5.677236|   -5.283070|  -12.583770|    3.659281|
|         112|  1.0046e+01|   -5.208824|   -5.321624|   -5.845353|   -5.672409|   -5.279880|  -12.580828|    3.659472|
|         113|  1.0019e+01|   -5.205576|   -5.320791|   -5.840613|   -5.667705|   -5.277342|  -12.578579|    3.659705|
|         114|  9.9910e+00|   -5.203040|   -5.319108|   -5.836347|   -5.663875|   -5.276286|  -12.577353|    3.659995|
|         115|  9.9699e+00|   -5.201892|   -5.316393|   -5.833114|   -5.661927|   -5.277374|  -12.577314|    3.660357|
|         116|  9.9488e+00|   -5.202682|   -5.312901|   -5.831120|   -5.662806|   -5.280602|  -12.577559|    3.660813|
|         117|  9.9312e+00|   -5.205157|   -5.309547|   -5.829892|   -5.666652|   -5.284444|  -12.574344|    3.661388|
|         118|  9.9204e+00|   -5.207736|   -5.307626|   -5.827964|   -5.671754|   -5.285814|  -12.563596|    3.662099|
|         119|  9.9110e+00|   -5.208092|   -5.307999|   -5.822949|   -5.673833|   -5.282251|  -12.550043|    3.662939|
|         120|  9.9070e+00|   -5.201917|   -5.310281|   -5.812123|   -5.666915|   -5.270825|  -12.541497|    3.663843|
|         121|  9.9014e+00|   -5.190988|   -5.313590|   -5.800084|   -5.654928|   -5.255374|  -12.545049|    3.664657|
|         122|  9.9020e+00|   -5.184068|   -5.317255|   -5.796304|   -5.649526|   -5.246576|  -12.557650|    3.665174|
|         123|  9.9089e+00|   -5.185785|   -5.321808|   -5.802826|   -5.652747|   -5.249430|  -12.569344|    3.665341|
|         124|  9.9145e+00|   -5.192844|   -5.327328|   -5.812904|   -5.658722|   -5.259457|  -12.577136|    3.665432|
|         125|  9.9197e+00|   -5.199747|   -5.331955|   -5.820667|   -5.664175|   -5.269151|  -12.583163|    3.665783|
|         126|  9.9258e+00|   -5.205253|   -5.335060|   -5.825478|   -5.669268|   -5.276196|  -12.586549|    3.666682|
|         127|  9.9314e+00|   -5.209806|   -5.336406|   -5.827243|   -5.674100|   -5.280605|  -12.588113|    3.668320|
|         128|  9.9363e+00|   -5.215892|   -5.336097|   -5.828509|   -5.680054|   -5.286384|  -12.589987|    3.670823|
|         129|  9.9412e+00|   -5.222893|   -5.335108|   -5.830757|   -5.686138|   -5.294508|  -12.591521|    3.674315|
|         130|  9.9468e+00|   -5.226262|   -5.334916|   -5.831775|   -5.688499|   -5.299152|  -12.587504|    3.678971|
|         131|  9.9520e+00|   -5.223361|   -5.336233|   -5.828938|   -5.685597|   -5.295069|  -12.580255|    3.685010|
|         132|  9.9560e+00|   -5.218546|   -5.339082|   -5.824598|   -5.681404|   -5.287891|  -12.579663|    3.692608|
|         133|  9.9607e+00|   -5.217658|   -5.342685|   -5.823880|   -5.680330|   -5.286352|  -12.583914|    3.701768|
|         134|  9.9656e+00|   -5.219891|   -5.345542|   -5.826037|   -5.681705|   -5.289286|  -12.585085|    3.712191|
|         135|  9.9714e+00|   -5.223026|   -5.347102|   -5.828355|   -5.684252|   -5.293209|  -12.581434|    3.723228|
|         136|  9.9769e+00|   -5.226080|   -5.347762|   -5.829592|   -5.687525|   -5.297121|  -12.578485|    3.733930|
|         137|  9.9818e+00|   -5.228496|   -5.348196|   -5.830388|   -5.690843|   -5.300897|  -12.577525|    3.743223|
|         138|  9.9860e+00|   -5.228309|   -5.348654|   -5.829319|   -5.691973|   -5.301468|  -12.574580|    3.750142|
|         139|  9.9903e+00|   -5.225250|   -5.349977|   -5.826493|   -5.689253|   -5.297672|  -12.569492|    3.754061|
|         140|  9.9896e+00|   -5.221852|   -5.352913|   -5.822223|   -5.684495|   -5.292733|  -12.567149|    3.754866|
|         141|  9.9892e+00|   -5.221332|   -5.356111|   -5.820837|   -5.682911|   -5.291596|  -12.570423|    3.752988|
|         142|  9.9903e+00|   -5.224016|   -5.357924|   -5.823477|   -5.684928|   -5.295126|  -12.573100|    3.749312|
|         143|  9.9924e+00|   -5.227604|   -5.358098|   -5.826365|   -5.688253|   -5.300091|  -12.571436|    3.744989|
|         144|  9.9924e+00|   -5.229937|   -5.357420|   -5.827525|   -5.691432|   -5.303922|  -12.571036|    3.741204|
|         145|  9.9923e+00|   -5.230216|   -5.357145|   -5.827541|   -5.693097|   -5.305621|  -12.568110|    3.738952|
|         146|  9.9920e+00|   -5.226622|   -5.357340|   -5.825084|   -5.691630|   -5.301731|  -12.563794|    3.738875|
|         147|  9.9927e+00|   -5.222170|   -5.359004|   -5.821658|   -5.687142|   -5.296071|  -12.560125|    3.741184|
|         148|  9.9923e+00|   -5.219376|   -5.361691|   -5.817648|   -5.682856|   -5.292184|  -12.559315|    3.745668|
|         149|  9.9910e+00|   -5.219866|   -5.363720|   -5.817150|   -5.681829|   -5.292788|  -12.561998|    3.751797|
|         150|  9.9902e+00|   -5.223072|   -5.363879|   -5.819955|   -5.683739|   -5.297433|  -12.562084|    3.758862|
+-----------------------------------------------------------------------+
|        File Writing Summary       |              Filename             |
+-----------------------------------------------------------------------+
|SU2 binary restart                 |restart_flow.dat                   |
|Paraview                           |flow.vtu                           |
|Paraview surface                   |surface_flow.vtu                   |
+-----------------------------------------------------------------------+
+--------------------------------------------------------------------------------------------------------------------+
|  Inner_Iter|   Time(sec)|    rms[Rho]|   rms[RhoU]|   rms[RhoV]|   rms[RhoW]|   rms[RhoE]|     rms[nu]|          CD|
+--------------------------------------------------------------------------------------------------------------------+
|         151|  1.0139e+01|   -5.226240|   -5.362373|   -5.822143|   -5.686793|   -5.302264|  -12.559686|    3.766132|
|         152|  1.0141e+01|   -5.227415|   -5.360765|   -5.822752|   -5.689109|   -5.305071|  -12.557331|    3.772977|
|         153|  1.0140e+01|   -5.225274|   -5.360094|   -5.821450|   -5.689153|   -5.303424|  -12.551372|    3.778945|
|         154|  1.0139e+01|   -5.220038|   -5.360138|   -5.818395|   -5.686313|   -5.296857|  -12.547085|    3.783793|
|         155|  1.0137e+01|   -5.215863|   -5.361661|   -5.814640|   -5.681406|   -5.291499|  -12.543961|    3.787466|
|         156|  1.0135e+01|   -5.213536|   -5.363623|   -5.810661|   -5.676803|   -5.288405|  -12.542794|    3.790045|
|         157|  1.0132e+01|   -5.213939|   -5.364580|   -5.810129|   -5.674772|   -5.289218|  -12.543285|    3.791693|
|         158|  1.0128e+01|   -5.216517|   -5.363572|   -5.812221|   -5.675599|   -5.293291|  -12.541878|    3.792600|
|         159|  1.0124e+01|   -5.219115|   -5.361010|   -5.813974|   -5.678079|   -5.297652|  -12.539634|    3.792941|
|         160|  1.0122e+01|   -5.219503|   -5.358801|   -5.814206|   -5.679978|   -5.299618|  -12.535024|    3.792852|
|         161|  1.0119e+01|   -5.215904|   -5.357464|   -5.812254|   -5.679806|   -5.295805|  -12.528398|    3.792432|
|         162|  1.0117e+01|   -5.210594|   -5.357013|   -5.809312|   -5.676603|   -5.289120|  -12.524253|    3.791741|
|         163|  1.0114e+01|   -5.206306|   -5.357815|   -5.804967|   -5.670822|   -5.283806|  -12.520470|    3.790816|
|         164|  1.0111e+01|   -5.203438|   -5.358839|   -5.800449|   -5.665113|   -5.280240|  -12.519155|    3.789684|
|         165|  1.0111e+01|   -5.202923|   -5.358877|   -5.799303|   -5.661388|   -5.280234|  -12.518468|    3.788368|
|         166|  1.0110e+01|   -5.204017|   -5.357135|   -5.800251|   -5.659842|   -5.282611|  -12.516375|    3.786895|
|         167|  1.0105e+01|   -5.205384|   -5.353892|   -5.801163|   -5.660473|   -5.285435|  -12.514409|    3.785293|
|         168|  1.0100e+01|   -5.205394|   -5.351109|   -5.801285|   -5.662198|   -5.286770|  -12.510063|    3.783594|
|         169|  1.0095e+01|   -5.202357|   -5.349110|   -5.799994|   -5.663419|   -5.283642|  -12.504836|    3.781827|
|         170|  1.0089e+01|   -5.198042|   -5.347786|   -5.797810|   -5.661693|   -5.278579|  -12.500796|    3.780017|
|         171|  1.0084e+01|   -5.193543|   -5.347399|   -5.793044|   -5.655362|   -5.273170|  -12.495503|    3.778181|
|         172|  1.0079e+01|   -5.189660|   -5.347282|   -5.787258|   -5.648216|   -5.268231|  -12.493645|    3.776333|
|         173|  1.0074e+01|   -5.188162|   -5.346482|   -5.784908|   -5.643299|   -5.267143|  -12.493866|    3.774478|
|         174|  1.0070e+01|   -5.187758|   -5.344277|   -5.784455|   -5.639538|   -5.267961|  -12.491491|    3.772617|
|         175|  1.0065e+01|   -5.186868|   -5.340483|   -5.783139|   -5.636356|   -5.267727|  -12.488337|    3.770752|
|         176|  1.0061e+01|   -5.185386|   -5.336592|   -5.781415|   -5.634976|   -5.266409|  -12.484539|    3.768881|
|         177|  1.0057e+01|   -5.182865|   -5.333342|   -5.779863|   -5.635967|   -5.263391|  -12.481195|    3.767003|
|         178|  1.0052e+01|   -5.180476|   -5.330239|   -5.778956|   -5.637702|   -5.260817|  -12.479769|    3.765121|
|         179|  1.0047e+01|   -5.177629|   -5.327128|   -5.775703|   -5.634909|   -5.257873|  -12.474726|    3.763235|
|         180|  1.0041e+01|   -5.172393|   -5.323818|   -5.767628|   -5.626148|   -5.250710|  -12.467982|    3.761350|
|         181|  1.0036e+01|   -5.167964|   -5.319851|   -5.760579|   -5.617462|   -5.244473|  -12.466808|    3.759470|
|         182|  1.0032e+01|   -5.166418|   -5.314657|   -5.757677|   -5.611998|   -5.243252|  -12.467874|    3.757598|
|         183|  1.0027e+01|   -5.164674|   -5.307917|   -5.754789|   -5.607031|   -5.242100|  -12.464890|    3.755741|
|         184|  1.0022e+01|   -5.160392|   -5.299683|   -5.748922|   -5.600290|   -5.236581|  -12.458809|    3.753900|
|         185|  1.0018e+01|   -5.154067|   -5.290725|   -5.741276|   -5.592968|   -5.227237|  -12.452692|    3.752079|
|         186|  1.0013e+01|   -5.148032|   -5.281290|   -5.734811|   -5.587750|   -5.218068|  -12.450439|    3.750281|
|         187|  1.0009e+01|   -5.144529|   -5.270978|   -5.730556|   -5.584950|   -5.213153|  -12.450902|    3.748506|
|         188|  1.0005e+01|   -5.140724|   -5.259291|   -5.723776|   -5.579427|   -5.208340|  -12.447167|    3.746755|
|         189|  1.0001e+01|   -5.132754|   -5.245981|   -5.710721|   -5.567408|   -5.197125|  -12.437443|    3.745028|
|         190|  9.9961e+00|   -5.123015|   -5.231061|   -5.695882|   -5.551855|   -5.183130|  -12.431468|    3.743327|
|         191|  9.9914e+00|   -5.115484|   -5.214683|   -5.684110|   -5.537689|   -5.173049|  -12.430361|    3.741653|
|         192|  9.9866e+00|   -5.108668|   -5.197063|   -5.673466|   -5.525304|   -5.165024|  -12.428124|    3.740010|
|         193|  9.9825e+00|   -5.098919|   -5.178383|   -5.660096|   -5.511979|   -5.153445|  -12.420446|    3.738401|
|         194|  9.9762e+00|   -5.085019|   -5.158702|   -5.642767|   -5.496017|   -5.136196|  -12.409604|    3.736834|
|         195|  9.9696e+00|   -5.069196|   -5.138261|   -5.624147|   -5.478303|   -5.116639|  -12.400818|    3.735314|
|         196|  9.9627e+00|   -5.054669|   -5.117343|   -5.607282|   -5.460970|   -5.099775|  -12.396026|    3.733847|
|         197|  9.9561e+00|   -5.041458|   -5.095985|   -5.591398|   -5.444319|   -5.086044|  -12.391530|    3.732439|
|         198|  9.9493e+00|   -5.026414|   -5.074027|   -5.573028|   -5.426376|   -5.071000|  -12.382242|    3.731089|
|         199|  9.9418e+00|   -5.008092|   -5.051469|   -5.551343|   -5.405967|   -5.052296|  -12.368751|    3.729796|
|         200|  9.9352e+00|   -4.988425|   -5.028598|   -5.529147|   -5.383980|   -5.032577|  -12.356505|    3.728555|
|         201|  9.9288e+00|   -4.969279|   -5.005793|   -5.508588|   -5.362005|   -5.014752|  -12.346625|    3.727358|
|         202|  9.9216e+00|   -4.950231|   -4.983283|   -5.489166|   -5.340928|   -4.998366|  -12.335896|    3.726197|
|         203|  9.9149e+00|   -4.929682|   -4.961143|   -5.469181|   -5.320499|   -4.981001|  -12.321817|    3.725066|
|         204|  9.8923e+00|   -4.907109|   -4.939330|   -5.447816|   -5.300020|   -4.961548|  -12.338903|    3.725033|
|         205|  9.8697e+00|   -4.906172|   -4.938713|   -5.447240|   -5.299437|   -4.960819|  -12.337734|    3.724993|
|         206|  9.8496e+00|   -4.905056|   -4.937976|   -5.446545|   -5.298740|   -4.959952|  -12.336333|    3.724944|
|         207|  9.8295e+00|   -4.903728|   -4.937093|   -5.445707|   -5.297906|   -4.958923|  -12.334659|    3.724887|
|         208|  9.8100e+00|   -4.902155|   -4.936038|   -5.444696|   -5.296909|   -4.957705|  -12.332662|    3.724817|
|         209|  9.7908e+00|   -4.900294|   -4.934777|   -5.443476|   -5.295718|   -4.956271|  -12.330291|    3.724734|
|         210|  9.7711e+00|   -4.898104|   -4.933268|   -5.442006|   -5.294296|   -4.954589|  -12.327494|    3.724634|
|         211|  9.7521e+00|   -4.895538|   -4.931464|   -5.440234|   -5.292601|   -4.952631|  -12.324224|    3.724514|
|         212|  9.7337e+00|   -4.892551|   -4.929305|   -5.438104|   -5.290579|   -4.950372|  -12.320449|    3.724369|
|         213|  9.7176e+00|   -4.889101|   -4.926720|   -5.435551|   -5.288167|   -4.947793|  -12.316155|    3.724195|
|         214|  9.7018e+00|   -4.885149|   -4.923619|   -5.432501|   -5.285286|   -4.944884|  -12.311360|    3.723985|
|         215|  9.6864e+00|   -4.880662|   -4.919893|   -5.428878|   -5.281834|   -4.941646|  -12.306093|    3.723732|
|         216|  9.6737e+00|   -4.875599|   -4.915408|   -5.424592|   -5.277674|   -4.938082|  -12.300360|    3.723426|
|         217|  9.6607e+00|   -4.869889|   -4.909993|   -5.419531|   -5.272616|   -4.934168|  -12.294062|    3.723057|
|         218|  9.6504e+00|   -4.863370|   -4.903435|   -5.413524|   -5.266393|   -4.929800|  -12.286960|    3.722610|
|         219|  9.6405e+00|   -4.855700|   -4.895460|   -5.406269|   -5.258634|   -4.924698|  -12.278602|    3.722073|
|         220|  9.6339e+00|   -4.846234|   -4.885715|   -5.397241|   -5.248859|   -4.918249|  -12.268185|    3.721430|
|         221|  9.6272e+00|   -4.833926|   -4.873747|   -5.385611|   -5.236502|   -4.909315|  -12.254210|    3.720668|
|         222|  9.6202e+00|   -4.817407|   -4.858972|   -5.370375|   -5.220987|   -4.896194|  -12.234455|    3.719778|
|         223|  9.6161e+00|   -4.795801|   -4.840681|   -5.351025|   -5.201897|   -4.877681|  -12.212490|    3.718814|
|         224|  9.6118e+00|   -4.771208|   -4.819856|   -5.329938|   -5.180682|   -4.856353|  -12.195729|    3.717892|
|         225|  9.6073e+00|   -4.747865|   -4.799573|   -5.311022|   -5.160513|   -4.837144|  -12.180752|    3.716999|
|         226|  9.6029e+00|   -4.726142|   -4.780260|   -5.293983|   -5.141379|   -4.820688|  -12.166778|    3.716114|
|         227|  9.5989e+00|   -4.705396|   -4.762101|   -5.277700|   -5.123037|   -4.805816|  -12.152069|    3.715222|
|         228|  9.5949e+00|   -4.685008|   -4.745061|   -5.261304|   -5.105350|   -4.791181|  -12.135384|    3.714309|
|         229|  9.5903e+00|   -4.664760|   -4.729034|   -5.244668|   -5.088338|   -4.776163|  -12.117349|    3.713372|
|         230|  9.5864e+00|   -4.644916|   -4.713926|   -5.228349|   -5.072140|   -4.761244|  -12.099567|    3.712417|
|         231|  9.5827e+00|   -4.625930|   -4.699676|   -5.212961|   -5.056850|   -4.747401|  -12.082474|    3.711457|
|         232|  9.5783e+00|   -4.607886|   -4.686199|   -5.198521|   -5.042363|   -4.734897|  -12.065692|    3.710512|
|         233|  9.5738e+00|   -4.590540|   -4.673373|   -5.184639|   -5.028473|   -4.723251|  -12.048864|    3.709598|
|         234|  9.5702e+00|   -4.573633|   -4.661090|   -5.171043|   -5.015031|   -4.711873|  -12.032002|    3.708729|
|         235|  9.5660e+00|   -4.557047|   -4.649299|   -5.157752|   -5.001990|   -4.700447|  -12.015398|    3.707905|
|         236|  9.5613e+00|   -4.540834|   -4.637987|   -5.144918|   -4.989388|   -4.689012|  -11.999293|    3.707119|
|         237|  9.5571e+00|   -4.525131|   -4.627114|   -5.132602|   -4.977261|   -4.677759|  -11.983774|    3.706353|
|         238|  9.5387e+00|   -4.510034|   -4.616608|   -5.120721|   -4.965609|   -4.666786|  -12.035582|    3.706332|
|         239|  9.5204e+00|   -4.509529|   -4.616319|   -5.120479|   -4.965316|   -4.666459|  -12.034192|    3.706306|
|         240|  9.5042e+00|   -4.508930|   -4.615980|   -5.120183|   -4.964966|   -4.666077|  -12.032533|    3.706275|
|         241|  9.4888e+00|   -4.508223|   -4.615582|   -5.119820|   -4.964546|   -4.665631|  -12.030557|    3.706237|
|         242|  9.4736e+00|   -4.507393|   -4.615118|   -5.119372|   -4.964043|   -4.665115|  -12.028206|    3.706192|
|         243|  9.4585e+00|   -4.506419|   -4.614578|   -5.118819|   -4.963441|   -4.664522|  -12.025419|    3.706138|
|         244|  9.4435e+00|   -4.505285|   -4.613956|   -5.118132|   -4.962721|   -4.663847|  -12.022123|    3.706073|
|         245|  9.4287e+00|   -4.503969|   -4.613242|   -5.117276|   -4.961860|   -4.663085|  -12.018241|    3.705994|
|         246|  9.4159e+00|   -4.502452|   -4.612428|   -5.116206|   -4.960829|   -4.662238|  -12.013692|    3.705900|
|         247|  9.4036e+00|   -4.500716|   -4.611507|   -5.114862|   -4.959593|   -4.661306|  -12.008388|    3.705785|
|         248|  9.3913e+00|   -4.498741|   -4.610467|   -5.113172|   -4.958111|   -4.660294|  -12.002241|    3.705646|
|         249|  9.3789e+00|   -4.496506|   -4.609291|   -5.111042|   -4.956328|   -4.659203|  -11.995158|    3.705477|
|         250|  9.3695e+00|   -4.493983|   -4.607949|   -5.108359|   -4.954169|   -4.658017|  -11.987036|    3.705269|
|         251|  9.3598e+00|   -4.491122|   -4.606377|   -5.104990|   -4.951539|   -4.656682|  -11.977750|    3.705012|
|         252|  9.3517e+00|   -4.487828|   -4.604461|   -5.100787|   -4.948302|   -4.655069|  -11.967133|    3.704691|
|         253|  9.3435e+00|   -4.483926|   -4.601992|   -5.095596|   -4.944275|   -4.652912|  -11.954955|    3.704286|
|         254|  9.3364e+00|   -4.479108|   -4.598634|   -5.089279|   -4.939219|   -4.649751|  -11.940926|    3.703774|
|         255|  9.3311e+00|   -4.472900|   -4.593892|   -5.081747|   -4.932837|   -4.644887|  -11.924763|    3.703132|
|         256|  9.3287e+00|   -4.464655|   -4.587139|   -5.072984|   -4.924813|   -4.637417|  -11.906320|    3.702351|
|         257|  9.3258e+00|   -4.453665|   -4.577742|   -5.063070|   -4.914857|   -4.626443|  -11.889768|    3.701525|
|         258|  9.3230e+00|   -4.440390|   -4.566243|   -5.052872|   -4.903624|   -4.612549|  -11.880187|    3.700829|
|         259|  9.3199e+00|   -4.427005|   -4.554790|   -5.043780|   -4.892823|   -4.598379|  -11.871004|    3.700327|
|         260|  9.3168e+00|   -4.414229|   -4.543979|   -5.035495|   -4.882677|   -4.584997|  -11.862415|    3.700066|
|         261|  9.3143e+00|   -4.402534|   -4.534154|   -5.027685|   -4.873287|   -4.572997|  -11.854395|    3.700063|
|         262|  9.3116e+00|   -4.392125|   -4.525484|   -5.020048|   -4.864624|   -4.562536|  -11.846724|    3.700296|
|         263|  9.3088e+00|   -4.382970|   -4.518016|   -5.012346|   -4.856564|   -4.553415|  -11.839100|    3.700694|
|         264|  9.3064e+00|   -4.374873|   -4.511707|   -5.004395|   -4.848915|   -4.545206|  -11.831282|    3.701143|
|         265|  9.3037e+00|   -4.367547|   -4.506443|   -4.996082|   -4.841434|   -4.537441|  -11.823159|    3.701483|
|         266|  9.3011e+00|   -4.360732|   -4.502033|   -4.987355|   -4.833896|   -4.529753|  -11.814775|    3.701524|
|         267|  9.2989e+00|   -4.354242|   -4.498223|   -4.978218|   -4.826162|   -4.521948|  -11.806307|    3.701056|
|         268|  9.2967e+00|   -4.347963|   -4.494737|   -4.968729|   -4.818177|   -4.513968|  -11.797922|    3.699860|
|         269|  9.2946e+00|   -4.341826|   -4.491311|   -4.958965|   -4.809939|   -4.505801|  -11.789721|    3.697729|
|         270|  9.2925e+00|   -4.335783|   -4.487741|   -4.949011|   -4.801475|   -4.497431|  -11.781735|    3.694481|
|         271|  9.2902e+00|   -4.329797|   -4.483909|   -4.938922|   -4.792815|   -4.488834|  -11.773957|    3.689971|
|         272|  9.2880e+00|   -4.323825|   -4.479794|   -4.928708|   -4.784013|   -4.479977|  -11.766373|    3.684104|
|         273|  9.2854e+00|   -4.317834|   -4.475443|   -4.918375|   -4.775152|   -4.470831|  -11.758937|    3.676840|
|         274|  9.2849e+00|   -4.311802|   -4.470921|   -4.907914|   -4.766294|   -4.461367|  -11.751638|    3.668204|
|         275|  9.2846e+00|   -4.305749|   -4.466295|   -4.897366|   -4.757515|   -4.451644|  -11.744470|    3.658277|
|         276|  9.2849e+00|   -4.299705|   -4.461629|   -4.886766|   -4.748844|   -4.441780|  -11.737473|    3.647205|
|         277|  9.2838e+00|   -4.293713|   -4.456973|   -4.876160|   -4.740335|   -4.431908|  -11.730646|    3.635184|
|         278|  9.2831e+00|   -4.287782|   -4.452380|   -4.865584|   -4.731981|   -4.422104|  -11.723990|    3.622456|
|         279|  9.2829e+00|   -4.281901|   -4.447882|   -4.854982|   -4.723754|   -4.412375|  -11.717560|    3.609297|
|         280|  9.2823e+00|   -4.276077|   -4.443509|   -4.844330|   -4.715686|   -4.402718|  -11.711380|    3.596007|
|         281|  9.2819e+00|   -4.270364|   -4.439276|   -4.833695|   -4.707870|   -4.393216|  -11.705508|    3.582894|
|         282|  9.2819e+00|   -4.264893|   -4.435206|   -4.823296|   -4.700443|   -4.384108|  -11.700002|    3.570263|
|         283|  9.2812e+00|   -4.259803|   -4.431320|   -4.813393|   -4.693459|   -4.375630|  -11.694908|    3.558403|
|         284|  9.2806e+00|   -4.255160|   -4.427669|   -4.804092|   -4.686896|   -4.367943|  -11.690199|    3.547569|
|         285|  9.2802e+00|   -4.250911|   -4.424296|   -4.795319|   -4.680683|   -4.360980|  -11.685863|    3.537981|
|         286|  9.2802e+00|   -4.246915|   -4.421237|   -4.786915|   -4.674741|   -4.354527|  -11.681847|    3.529800|
|         287|  9.2795e+00|   -4.243048|   -4.418463|   -4.778809|   -4.669070|   -4.348311|  -11.677935|    3.523131|
|         288|  9.2793e+00|   -4.239343|   -4.415898|   -4.771041|   -4.663699|   -4.342291|  -11.674313|    3.518007|
|         289|  9.2787e+00|   -4.235981|   -4.413434|   -4.763684|   -4.658710|   -4.336795|  -11.671356|    3.514391|
|         290|  9.2783e+00|   -4.233211|   -4.411097|   -4.756840|   -4.654191|   -4.332258|  -11.669269|    3.512171|
|         291|  9.2783e+00|   -4.230998|   -4.409008|   -4.750511|   -4.650120|   -4.328663|  -11.667650|    3.511168|
|         292|  9.2780e+00|   -4.229056|   -4.407262|   -4.744712|   -4.646383|   -4.325592|  -11.665949|    3.511139|
|         293|  9.2775e+00|   -4.227140|   -4.405820|   -4.739371|   -4.642848|   -4.322615|  -11.663885|    3.511796|
|         294|  9.2771e+00|   -4.225256|   -4.404546|   -4.734445|   -4.639509|   -4.319687|  -11.661849|    3.512823|
|         295|  9.2752e+00|   -4.223615|   -4.403383|   -4.729947|   -4.636432|   -4.317096|  -11.660371|    3.513893|
|         296|  9.2735e+00|   -4.222325|   -4.402367|   -4.725870|   -4.633680|   -4.315084|  -11.659492|    3.514693|
|         297|  9.2713e+00|   -4.221366|   -4.401617|   -4.722141|   -4.631264|   -4.313609|  -11.658776|    3.514940|
|         298|  9.2691e+00|   -4.220505|   -4.401111|   -4.718593|   -4.629080|   -4.312363|  -11.657783|    3.514400|
|         299|  9.2664e+00|   -4.219613|   -4.400766|   -4.715170|   -4.627029|   -4.311086|  -11.656533|    3.512895|
|         300|  9.2641e+00|   -4.218773|   -4.400588|   -4.711905|   -4.625101|   -4.309848|  -11.655404|    3.510312|
+-----------------------------------------------------------------------+
|        File Writing Summary       |              Filename             |
+-----------------------------------------------------------------------+
|SU2 binary restart                 |restart_flow.dat                   |
|Paraview                           |flow.vtu                           |
|Paraview surface                   |surface_flow.vtu                   |
+-----------------------------------------------------------------------+
+--------------------------------------------------------------------------------------------------------------------+
|  Inner_Iter|   Time(sec)|    rms[Rho]|   rms[RhoU]|   rms[RhoV]|   rms[RhoW]|   rms[RhoE]|     rms[nu]|          CD|
+--------------------------------------------------------------------------------------------------------------------+
|         301|  9.3268e+00|   -4.218125|   -4.400602|   -4.708921|   -4.623326|   -4.308867|  -11.694445|    3.510235|
|         302|  9.3146e+00|   -4.217995|   -4.400843|   -4.708861|   -4.623253|   -4.308912|  -11.693145|    3.510140|
|         303|  9.3040e+00|   -4.217856|   -4.401134|   -4.708790|   -4.623172|   -4.308986|  -11.691629|    3.510024|
|         304|  9.2922e+00|   -4.217713|   -4.401489|   -4.708707|   -4.623083|   -4.309103|  -11.689874|    3.509880|
|         305|  9.2806e+00|   -4.217574|   -4.401919|   -4.708611|   -4.622988|   -4.309283|  -11.687860|    3.509700|
|         306|  9.2696e+00|   -4.217459|   -4.402444|   -4.708499|   -4.622890|   -4.309554|  -11.685573|    3.509476|
|         307|  9.2583e+00|   -4.217388|   -4.403083|   -4.708371|   -4.622796|   -4.309955|  -11.683010|    3.509194|
|         308|  9.2487e+00|   -4.217395|   -4.403858|   -4.708224|   -4.622715|   -4.310535|  -11.680188|    3.508836|
|         309|  9.2394e+00|   -4.217527|   -4.404794|   -4.708056|   -4.622660|   -4.311359|  -11.677157|    3.508379|
|         310|  9.2297e+00|   -4.217851|   -4.405919|   -4.707868|   -4.622648|   -4.312511|  -11.673995|    3.507791|
|         311|  9.2204e+00|   -4.218454|   -4.407261|   -4.707657|   -4.622705|   -4.314086|  -11.670824|    3.507029|
|         312|  9.2131e+00|   -4.219428|   -4.408841|   -4.707418|   -4.622856|   -4.316173|  -11.667797|    3.506036|
|         313|  9.2053e+00|   -4.220881|   -4.410670|   -4.707140|   -4.623126|   -4.318847|  -11.665087|    3.504732|
|         314|  9.1976e+00|   -4.222890|   -4.412730|   -4.706801|   -4.623530|   -4.322118|  -11.662817|    3.503010|
|         315|  9.1918e+00|   -4.225443|   -4.414947|   -4.706358|   -4.624046|   -4.325843|  -11.660950|    3.500724|
|         316|  9.1862e+00|   -4.228408|   -4.417178|   -4.705763|   -4.624601|   -4.329703|  -11.659251|    3.497679|
|         317|  9.1823e+00|   -4.231392|   -4.419154|   -4.704913|   -4.625018|   -4.333046|  -11.657196|    3.493618|
|         318|  9.1788e+00|   -4.233675|   -4.420458|   -4.703665|   -4.624990|   -4.334870|  -11.654152|    3.488211|
|         319|  9.1771e+00|   -4.234290|   -4.420560|   -4.701893|   -4.624150|   -4.334035|  -11.649572|    3.481059|
|         320|  9.1751e+00|   -4.232279|   -4.418975|   -4.699523|   -4.622116|   -4.329616|  -11.645660|    3.472330|
|         321|  9.1733e+00|   -4.227581|   -4.416144|   -4.696896|   -4.618971|   -4.322161|  -11.645306|    3.463106|
|         322|  9.1711e+00|   -4.221908|   -4.413703|   -4.694755|   -4.615629|   -4.314400|  -11.645027|    3.453525|
|         323|  9.1686e+00|   -4.217005|   -4.412096|   -4.693200|   -4.612709|   -4.308209|  -11.645829|    3.443711|
|         324|  9.1666e+00|   -4.214063|   -4.411447|   -4.692262|   -4.610703|   -4.304679|  -11.647863|    3.433768|
|         325|  9.1645e+00|   -4.213605|   -4.411706|   -4.691870|   -4.609828|   -4.304126|  -11.650635|    3.423781|
|         326|  9.1624e+00|   -4.215511|   -4.412818|   -4.691843|   -4.610020|   -4.306215|  -11.653410|    3.413812|
|         327|  9.1606e+00|   -4.219122|   -4.414773|   -4.691966|   -4.610970|   -4.310075|  -11.655393|    3.403900|
|         328|  9.1586e+00|   -4.223423|   -4.417563|   -4.691998|   -4.612169|   -4.314528|  -11.655955|    3.394066|
|         329|  9.1567e+00|   -4.227444|   -4.421115|   -4.691828|   -4.613180|   -4.318525|  -11.654928|    3.384312|
|         330|  9.1546e+00|   -4.230527|   -4.425173|   -4.691428|   -4.613734|   -4.321407|  -11.652673|    3.374627|
|         331|  9.1528e+00|   -4.232479|   -4.429385|   -4.690864|   -4.613773|   -4.323055|  -11.649906|    3.364985|
|         332|  9.1508e+00|   -4.233523|   -4.433386|   -4.690237|   -4.613387|   -4.323803|  -11.647352|    3.355353|
|         333|  9.1489e+00|   -4.234105|   -4.436877|   -4.689635|   -4.612809|   -4.324221|  -11.645521|    3.345690|
|         334|  9.1469e+00|   -4.234629|   -4.439703|   -4.689092|   -4.612217|   -4.324765|  -11.644418|    3.335953|
|         335|  9.1451e+00|   -4.235338|   -4.441859|   -4.688627|   -4.611756|   -4.325670|  -11.643801|    3.326097|
|         336|  9.1432e+00|   -4.236261|   -4.443458|   -4.688275|   -4.611447|   -4.326885|  -11.643357|    3.316080|
|         337|  9.1412e+00|   -4.237289|   -4.444637|   -4.688056|   -4.611254|   -4.328223|  -11.642727|    3.305860|
|         338|  9.1388e+00|   -4.238304|   -4.445579|   -4.687957|   -4.611093|   -4.329510|  -11.641762|    3.295403|
|         339|  9.1373e+00|   -4.239272|   -4.446458|   -4.687949|   -4.610918|   -4.330688|  -11.640511|    3.284678|
|         340|  9.1361e+00|   -4.240188|   -4.447387|   -4.687989|   -4.610683|   -4.331736|  -11.639086|    3.273663|
|         341|  9.1341e+00|   -4.241064|   -4.448432|   -4.688015|   -4.610395|   -4.332674|  -11.637513|    3.262341|
|         342|  9.1321e+00|   -4.241941|   -4.449631|   -4.687963|   -4.610120|   -4.333567|  -11.635828|    3.250704|
|         343|  9.1309e+00|   -4.242869|   -4.450995|   -4.687870|   -4.609924|   -4.334473|  -11.634106|    3.238748|
|         344|  9.1297e+00|   -4.243880|   -4.452506|   -4.687744|   -4.609800|   -4.335422|  -11.632436|    3.226476|
|         345|  9.1279e+00|   -4.245030|   -4.454248|   -4.687612|   -4.609688|   -4.336461|  -11.630770|    3.213896|
|         346|  9.1260e+00|   -4.246306|   -4.456112|   -4.687525|   -4.609545|   -4.337593|  -11.629102|    3.201020|
|         347|  9.1245e+00|   -4.247721|   -4.458074|   -4.687508|   -4.609308|   -4.338829|  -11.627356|    3.187863|
|         348|  9.1229e+00|   -4.249266|   -4.460109|   -4.687568|   -4.608988|   -4.340169|  -11.625483|    3.174440|
|         349|  9.1215e+00|   -4.250903|   -4.462215|   -4.687683|   -4.608637|   -4.341574|  -11.623397|    3.160769|
|         350|  9.1199e+00|   -4.252578|   -4.464403|   -4.687861|   -4.608298|   -4.343002|  -11.621092|    3.146868|
|         351|  9.1185e+00|   -4.254286|   -4.466704|   -4.688117|   -4.608065|   -4.344463|  -11.618596|    3.132753|
|         352|  9.1169e+00|   -4.256033|   -4.469102|   -4.688442|   -4.607992|   -4.345972|  -11.615917|    3.118441|
|         353|  9.1150e+00|   -4.257828|   -4.471552|   -4.688822|   -4.608084|   -4.347526|  -11.613095|    3.103946|
|         354|  9.1134e+00|   -4.259671|   -4.474011|   -4.689240|   -4.608304|   -4.349130|  -11.610200|    3.089282|
|         355|  9.1116e+00|   -4.261573|   -4.476445|   -4.689704|   -4.608595|   -4.350806|  -11.607204|    3.074462|
|         356|  9.1099e+00|   -4.263508|   -4.478857|   -4.690175|   -4.608885|   -4.352529|  -11.604053|    3.059498|
|         357|  9.1085e+00|   -4.265416|   -4.481263|   -4.690626|   -4.609091|   -4.354225|  -11.600653|    3.044402|
|         358|  9.1067e+00|   -4.267243|   -4.483675|   -4.691040|   -4.609170|   -4.355836|  -11.596990|    3.029185|
|         359|  9.1035e+00|   -4.269002|   -4.486088|   -4.691416|   -4.609190|   -4.357383|  -11.593126|    3.013859|
|         360|  9.1013e+00|   -4.270718|   -4.488493|   -4.691767|   -4.609224|   -4.358886|  -11.589116|    2.998435|
|         361|  9.0985e+00|   -4.272414|   -4.490856|   -4.692128|   -4.609329|   -4.360392|  -11.584951|    2.982928|
|         362|  9.0952e+00|   -4.274139|   -4.493170|   -4.692531|   -4.609531|   -4.361945|  -11.580565|    2.967349|
|         363|  9.0918e+00|   -4.275931|   -4.495433|   -4.693009|   -4.609843|   -4.363581|  -11.575945|    2.951715|
|         364|  9.0887e+00|   -4.277803|   -4.497625|   -4.693594|   -4.610277|   -4.365326|  -11.571025|    2.936039|
|         365|  9.0860e+00|   -4.279732|   -4.499715|   -4.694275|   -4.610817|   -4.367158|  -11.565781|    2.920339|
|         366|  9.0829e+00|   -4.281677|   -4.501679|   -4.695021|   -4.611412|   -4.369029|  -11.560209|    2.904628|
|         367|  9.0799e+00|   -4.283600|   -4.503523|   -4.695795|   -4.612054|   -4.370899|  -11.554299|    2.888925|
|         368|  9.0767e+00|   -4.285440|   -4.505258|   -4.696565|   -4.612704|   -4.372708|  -11.548037|    2.873244|
|         369|  9.0736e+00|   -4.287147|   -4.506880|   -4.697320|   -4.613325|   -4.374413|  -11.541407|    2.857601|
|         370|  9.0708e+00|   -4.288718|   -4.508384|   -4.698058|   -4.613875|   -4.376002|  -11.534454|    2.842010|
|         371|  9.0679e+00|   -4.290187|   -4.509751|   -4.698780|   -4.614357|   -4.377517|  -11.527205|    2.826485|
|         372|  9.0651e+00|   -4.291584|   -4.510945|   -4.699485|   -4.614786|   -4.378983|  -11.519628|    2.811036|
|         373|  9.0623e+00|   -4.292929|   -4.511949|   -4.700171|   -4.615212|   -4.380426|  -11.511693|    2.795674|
|         374|  9.0589e+00|   -4.294260|   -4.512758|   -4.700878|   -4.615669|   -4.381898|  -11.503451|    2.780408|
|         375|  9.0557e+00|   -4.295578|   -4.513366|   -4.701634|   -4.616171|   -4.383400|  -11.494911|    2.765243|
|         376|  9.0524e+00|   -4.296869|   -4.513778|   -4.702442|   -4.616715|   -4.384916|  -11.486048|    2.750185|
|         377|  9.0497e+00|   -4.298097|   -4.514012|   -4.703290|   -4.617302|   -4.386405|  -11.476813|    2.735238|
|         378|  9.0474e+00|   -4.299238|   -4.514085|   -4.704169|   -4.617930|   -4.387852|  -11.467247|    2.720402|
|         379|  9.0444e+00|   -4.300257|   -4.514006|   -4.705052|   -4.618559|   -4.389216|  -11.457396|    2.705678|
|         380|  9.0415e+00|   -4.301181|   -4.513789|   -4.705943|   -4.619183|   -4.390520|  -11.447275|    2.691066|
|         381|  9.0392e+00|   -4.302049|   -4.513438|   -4.706832|   -4.619807|   -4.391805|  -11.436925|    2.676565|
|         382|  9.0364e+00|   -4.302876|   -4.512953|   -4.707710|   -4.620413|   -4.393077|  -11.426348|    2.662171|
|         383|  9.0343e+00|   -4.303678|   -4.512344|   -4.708594|   -4.620985|   -4.394352|  -11.415545|    2.647885|
|         384|  9.0318e+00|   -4.304454|   -4.511635|   -4.709477|   -4.621506|   -4.395631|  -11.404552|    2.633702|
|         385|  9.0293e+00|   -4.305173|   -4.510838|   -4.710343|   -4.621974|   -4.396871|  -11.393414|    2.619624|
|         386|  9.0266e+00|   -4.305813|   -4.509962|   -4.711191|   -4.622411|   -4.398055|  -11.382152|    2.605648|
|         387|  9.0240e+00|   -4.306375|   -4.509028|   -4.712026|   -4.622847|   -4.399182|  -11.370783|    2.591776|
|         388|  9.0213e+00|   -4.306888|   -4.508061|   -4.712881|   -4.623298|   -4.400279|  -11.359319|    2.578008|
|         389|  9.0184e+00|   -4.307373|   -4.507087|   -4.713753|   -4.623766|   -4.401364|  -11.347760|    2.564347|
|         390|  9.0162e+00|   -4.307833|   -4.506113|   -4.714618|   -4.624246|   -4.402429|  -11.336104|    2.550796|
|         391|  9.0138e+00|   -4.308271|   -4.505145|   -4.715480|   -4.624720|   -4.403475|  -11.324389|    2.537362|
|         392|  9.0112e+00|   -4.308698|   -4.504189|   -4.716343|   -4.625169|   -4.404512|  -11.312642|    2.524048|
|         393|  9.0084e+00|   -4.309104|   -4.503243|   -4.717209|   -4.625561|   -4.405517|  -11.300895|    2.510862|
|         394|  9.0055e+00|   -4.309514|   -4.502318|   -4.718079|   -4.625913|   -4.406514|  -11.289170|    2.497812|
|         395|  9.0030e+00|   -4.309926|   -4.501432|   -4.718915|   -4.626242|   -4.407488|  -11.277505|    2.484906|
|         396|  9.0004e+00|   -4.310357|   -4.500603|   -4.719712|   -4.626558|   -4.408457|  -11.265903|    2.472150|
|         397|  8.9979e+00|   -4.310816|   -4.499846|   -4.720481|   -4.626870|   -4.409433|  -11.254355|    2.459554|
|         398|  8.9956e+00|   -4.311303|   -4.499165|   -4.721237|   -4.627196|   -4.410419|  -11.242865|    2.447124|
|         399|  8.9930e+00|   -4.311807|   -4.498562|   -4.722005|   -4.627539|   -4.411406|  -11.231442|    2.434869|
|         400|  8.9905e+00|   -4.312322|   -4.498029|   -4.722818|   -4.627889|   -4.412387|  -11.220084|    2.422794|
|         401|  8.9879e+00|   -4.312824|   -4.497552|   -4.723657|   -4.628208|   -4.413325|  -11.208770|    2.410903|
|         402|  8.9853e+00|   -4.313322|   -4.497114|   -4.724539|   -4.628489|   -4.414225|  -11.197463|    2.399202|
|         403|  8.9830e+00|   -4.313824|   -4.496703|   -4.725456|   -4.628731|   -4.415086|  -11.186136|    2.387693|
|         404|  8.9804e+00|   -4.314350|   -4.496314|   -4.726407|   -4.628952|   -4.415920|  -11.174767|    2.376376|
|         405|  8.9782e+00|   -4.314894|   -4.495943|   -4.727383|   -4.629160|   -4.416719|  -11.163344|    2.365253|
|         406|  8.9755e+00|   -4.315472|   -4.495581|   -4.728374|   -4.629412|   -4.417510|  -11.151855|    2.354322|
|         407|  8.9729e+00|   -4.316082|   -4.495222|   -4.729387|   -4.629734|   -4.418296|  -11.140316|    2.343580|
|         408|  8.9703e+00|   -4.316725|   -4.494867|   -4.730416|   -4.630141|   -4.419083|  -11.128709|    2.333025|
|         409|  8.9679e+00|   -4.317398|   -4.494520|   -4.731462|   -4.630619|   -4.419868|  -11.117019|    2.322653|
|         410|  8.9658e+00|   -4.318091|   -4.494178|   -4.732521|   -4.631129|   -4.420634|  -11.105228|    2.312458|
|         411|  8.9634e+00|   -4.318793|   -4.493841|   -4.733578|   -4.631628|   -4.421364|  -11.093325|    2.302437|
|         412|  8.9612e+00|   -4.319501|   -4.493512|   -4.734642|   -4.632096|   -4.422057|  -11.081324|    2.292584|
|         413|  8.9590e+00|   -4.320227|   -4.493180|   -4.735747|   -4.632532|   -4.422731|  -11.069253|    2.282894|
|         414|  8.9567e+00|   -4.320985|   -4.492848|   -4.736902|   -4.632960|   -4.423406|  -11.057122|    2.273363|
|         415|  8.9547e+00|   -4.321775|   -4.492512|   -4.738119|   -4.633403|   -4.424089|  -11.044923|    2.263986|
|         416|  8.9525e+00|   -4.322586|   -4.492169|   -4.739388|   -4.633889|   -4.424777|  -11.032642|    2.254760|
|         417|  8.9505e+00|   -4.323417|   -4.491818|   -4.740700|   -4.634424|   -4.425479|  -11.020257|    2.245681|
|         418|  8.9481e+00|   -4.324257|   -4.491450|   -4.742042|   -4.634994|   -4.426181|  -11.007775|    2.236746|
|         419|  8.9459e+00|   -4.325080|   -4.491059|   -4.743407|   -4.635586|   -4.426862|  -10.995217|    2.227954|
|         420|  8.9442e+00|   -4.325878|   -4.490623|   -4.744802|   -4.636189|   -4.427518|  -10.982610|    2.219302|
|         421|  8.9421e+00|   -4.326644|   -4.490149|   -4.746218|   -4.636779|   -4.428144|  -10.969980|    2.210791|
|         422|  8.9401e+00|   -4.327381|   -4.489641|   -4.747659|   -4.637358|   -4.428750|  -10.957353|    2.202419|
|         423|  8.9380e+00|   -4.328087|   -4.489094|   -4.749106|   -4.637913|   -4.429336|  -10.944743|    2.194187|
|         424|  8.9358e+00|   -4.328768|   -4.488508|   -4.750549|   -4.638450|   -4.429914|  -10.932139|    2.186095|
|         425|  8.9333e+00|   -4.329420|   -4.487880|   -4.751977|   -4.638979|   -4.430488|  -10.919557|    2.178143|
|         426|  8.9310e+00|   -4.330032|   -4.487210|   -4.753379|   -4.639492|   -4.431046|  -10.907008|    2.170332|
|         427|  8.9292e+00|   -4.330586|   -4.486485|   -4.754754|   -4.639979|   -4.431581|  -10.894501|    2.162664|
|         428|  8.9272e+00|   -4.331082|   -4.485702|   -4.756106|   -4.640453|   -4.432096|  -10.882063|    2.155138|
|         429|  8.9252e+00|   -4.331520|   -4.484864|   -4.757439|   -4.640912|   -4.432592|  -10.869734|    2.147756|
|         430|  8.9229e+00|   -4.331877|   -4.483957|   -4.758745|   -4.641331|   -4.433048|  -10.857543|    2.140519|
|         431|  8.9210e+00|   -4.332166|   -4.483011|   -4.760035|   -4.641723|   -4.433487|  -10.845524|    2.133428|
|         432|  8.9191e+00|   -4.332378|   -4.481990|   -4.761315|   -4.642055|   -4.433895|  -10.833706|    2.126483|
|         433|  8.9171e+00|   -4.332508|   -4.480873|   -4.762577|   -4.642319|   -4.434262|  -10.822104|    2.119685|
|         434|  8.9150e+00|   -4.332543|   -4.479644|   -4.763817|   -4.642502|   -4.434575|  -10.810725|    2.113034|
|         435|  8.9128e+00|   -4.332470|   -4.478292|   -4.765026|   -4.642596|   -4.434825|  -10.799572|    2.106531|
|         436|  8.9106e+00|   -4.332267|   -4.476793|   -4.766187|   -4.642591|   -4.434987|  -10.788671|    2.100177|
|         437|  8.9085e+00|   -4.331920|   -4.475125|   -4.767293|   -4.642462|   -4.435050|  -10.778046|    2.093971|
|         438|  8.9062e+00|   -4.331422|   -4.473294|   -4.768332|   -4.642183|   -4.435010|  -10.767725|    2.087913|
|         439|  8.9042e+00|   -4.330766|   -4.471291|   -4.769305|   -4.641758|   -4.434865|  -10.757736|    2.082005|
|         440|  8.9021e+00|   -4.329936|   -4.469110|   -4.770210|   -4.641159|   -4.434602|  -10.748112|    2.076246|
|         441|  8.9000e+00|   -4.328917|   -4.466744|   -4.771050|   -4.640378|   -4.434215|  -10.738869|    2.070636|
|         442|  8.8982e+00|   -4.327686|   -4.464166|   -4.771808|   -4.639409|   -4.433682|  -10.730012|    2.065176|
|         443|  8.8960e+00|   -4.326227|   -4.461368|   -4.772458|   -4.638243|   -4.432984|  -10.721589|    2.059866|
|         444|  8.8939e+00|   -4.324529|   -4.458368|   -4.772988|   -4.636887|   -4.432126|  -10.713635|    2.054705|
|         445|  8.8920e+00|   -4.322577|   -4.455143|   -4.773372|   -4.635330|   -4.431091|  -10.706197|    2.049694|
|         446|  8.8902e+00|   -4.320367|   -4.451673|   -4.773611|   -4.633555|   -4.429865|  -10.699328|    2.044834|
|         447|  8.8882e+00|   -4.317876|   -4.447896|   -4.773698|   -4.631550|   -4.428402|  -10.693083|    2.040123|
|         448|  8.8863e+00|   -4.315108|   -4.443837|   -4.773649|   -4.629304|   -4.426721|  -10.687487|    2.035563|
|         449|  8.8844e+00|   -4.312062|   -4.439487|   -4.773474|   -4.626828|   -4.424816|  -10.682611|    2.031152|
|         450|  8.8826e+00|   -4.308731|   -4.434842|   -4.773164|   -4.624118|   -4.422669|  -10.678525|    2.026892|
+-----------------------------------------------------------------------+
|        File Writing Summary       |              Filename             |
+-----------------------------------------------------------------------+
|SU2 binary restart                 |restart_flow.dat                   |
|Paraview                           |flow.vtu                           |
|Paraview surface                   |surface_flow.vtu                   |
+-----------------------------------------------------------------------+
+--------------------------------------------------------------------------------------------------------------------+
|  Inner_Iter|   Time(sec)|    rms[Rho]|   rms[RhoU]|   rms[RhoV]|   rms[RhoW]|   rms[RhoE]|     rms[nu]|          CD|
+--------------------------------------------------------------------------------------------------------------------+
|         451|  8.9339e+00|   -4.305100|   -4.429892|   -4.772715|   -4.621173|   -4.420267|  -10.675274|    2.022782|
|         452|  8.9319e+00|   -4.301207|   -4.424767|   -4.772136|   -4.618074|   -4.417676|  -10.672906|    2.018822|
|         453|  8.9301e+00|   -4.297025|   -4.419361|   -4.771405|   -4.614779|   -4.414840|  -10.671457|    2.015012|
|         454|  8.9284e+00|   -4.292566|   -4.413670|   -4.770511|   -4.611298|   -4.411753|  -10.670963|    2.011352|
|         455|  8.9269e+00|   -4.287825|   -4.407688|   -4.769457|   -4.607631|   -4.408399|  -10.671441|    2.007841|
|         456|  8.9251e+00|   -4.282807|   -4.401411|   -4.768237|   -4.603786|   -4.404765|  -10.672871|    2.004478|
|         457|  8.9235e+00|   -4.277523|   -4.394858|   -4.766857|   -4.599775|   -4.400851|  -10.675208|    2.001265|
|         458|  8.9219e+00|   -4.272002|   -4.388055|   -4.765320|   -4.595615|   -4.396669|  -10.678423|    1.998199|
|         459|  8.9199e+00|   -4.266275|   -4.381038|   -4.763634|   -4.591317|   -4.392237|  -10.682421|    1.995281|
|         460|  8.9180e+00|   -4.260385|   -4.373867|   -4.761817|   -4.586906|   -4.387587|  -10.687059|    1.992510|
|         461|  8.9163e+00|   -4.254365|   -4.366579|   -4.759877|   -4.582408|   -4.382745|  -10.692141|    1.989886|
|         462|  8.9141e+00|   -4.248257|   -4.359222|   -4.757831|   -4.577846|   -4.377741|  -10.697362|    1.987408|
|         463|  8.9119e+00|   -4.242101|   -4.351843|   -4.755693|   -4.573252|   -4.372616|  -10.702371|    1.985075|
|         464|  8.9098e+00|   -4.235943|   -4.344497|   -4.753475|   -4.568667|   -4.367418|  -10.706780|    1.982887|
|         465|  8.9080e+00|   -4.229820|   -4.337221|   -4.751182|   -4.564113|   -4.362179|  -10.710230|    1.980843|
|         466|  8.9058e+00|   -4.223755|   -4.330049|   -4.748816|   -4.559602|   -4.356923|  -10.712452|    1.978944|
|         467|  8.9039e+00|   -4.217776|   -4.323016|   -4.746387|   -4.555141|   -4.351678|  -10.713268|    1.977188|
|         468|  8.9021e+00|   -4.211897|   -4.316140|   -4.743901|   -4.550740|   -4.346466|  -10.712640|    1.975574|
|         469|  8.9001e+00|   -4.206155|   -4.309465|   -4.741371|   -4.546428|   -4.341327|  -10.710685|    1.974104|
|         470|  8.8982e+00|   -4.200528|   -4.302972|   -4.738786|   -4.542168|   -4.336244|  -10.707610|    1.972775|
|         471|  8.8960e+00|   -4.195018|   -4.296662|   -4.736146|   -4.537963|   -4.331231|  -10.703698|    1.971588|
|         472|  8.8939e+00|   -4.189613|   -4.290521|   -4.733448|   -4.533796|   -4.326280|  -10.699259|    1.970542|
|         473|  8.8920e+00|   -4.184294|   -4.284528|   -4.730674|   -4.529642|   -4.321381|  -10.694544|    1.969636|
|         474|  8.8900e+00|   -4.179048|   -4.278662|   -4.727822|   -4.525500|   -4.316531|  -10.689747|    1.968871|
|         475|  8.8881e+00|   -4.173868|   -4.272915|   -4.724878|   -4.521379|   -4.311734|  -10.685011|    1.968246|
|         476|  8.8863e+00|   -4.168737|   -4.267264|   -4.721828|   -4.517273|   -4.306980|  -10.680419|    1.967760|
|         477|  8.8842e+00|   -4.163635|   -4.261683|   -4.718662|   -4.513181|   -4.302259|  -10.675970|    1.967412|
|         478|  8.8823e+00|   -4.158527|   -4.256127|   -4.715368|   -4.509078|   -4.297539|  -10.671630|    1.967202|
|         479|  8.8804e+00|   -4.153383|   -4.250559|   -4.711930|   -4.504955|   -4.292795|  -10.667361|    1.967130|
|         480|  8.8790e+00|   -4.148202|   -4.244971|   -4.708352|   -4.500834|   -4.288034|  -10.663121|    1.967194|
|         481|  8.8773e+00|   -4.142955|   -4.239331|   -4.704622|   -4.496685|   -4.283225|  -10.658847|    1.967395|
|         482|  8.8755e+00|   -4.137638|   -4.233627|   -4.700747|   -4.492508|   -4.278360|  -10.654493|    1.967731|
|         483|  8.8737e+00|   -4.132236|   -4.227837|   -4.696726|   -4.488296|   -4.273422|  -10.650054|    1.968201|
|         484|  8.8718e+00|   -4.126739|   -4.221948|   -4.692563|   -4.484036|   -4.268398|  -10.645524|    1.968805|
|         485|  8.8700e+00|   -4.121163|   -4.215970|   -4.688273|   -4.479747|   -4.263299|  -10.640918|    1.969543|
|         486|  8.8683e+00|   -4.115507|   -4.209895|   -4.683864|   -4.475422|   -4.258117|  -10.636256|    1.970413|
|         487|  8.8665e+00|   -4.109780|   -4.203729|   -4.679341|   -4.471076|   -4.252857|  -10.631559|    1.971415|
|         488|  8.8644e+00|   -4.103979|   -4.197464|   -4.674715|   -4.466693|   -4.247505|  -10.626837|    1.972548|
|         489|  8.8624e+00|   -4.098119|   -4.191116|   -4.670015|   -4.462289|   -4.242075|  -10.622093|    1.973811|
|         490|  8.8605e+00|   -4.092227|   -4.184707|   -4.665258|   -4.457904|   -4.236598|  -10.617315|    1.975205|
|         491|  8.8586e+00|   -4.086344|   -4.178275|   -4.660478|   -4.453576|   -4.231111|  -10.612478|    1.976727|
|         492|  8.8568e+00|   -4.080493|   -4.171839|   -4.655687|   -4.449333|   -4.225632|  -10.607580|    1.978378|
|         493|  8.8549e+00|   -4.074637|   -4.165366|   -4.650881|   -4.445116|   -4.220119|  -10.602627|    1.980157|
|         494|  8.8531e+00|   -4.068809|   -4.158888|   -4.646083|   -4.440970|   -4.214605|  -10.597612|    1.982063|
|         495|  8.8512e+00|   -4.062997|   -4.152395|   -4.641293|   -4.436855|   -4.209070|  -10.592508|    1.984094|
|         496|  8.8494e+00|   -4.057189|   -4.145879|   -4.636506|   -4.432730|   -4.203493|  -10.587285|    1.986251|
|         497|  8.8476e+00|   -4.051412|   -4.139366|   -4.631731|   -4.428631|   -4.197903|  -10.581916|    1.988532|
|         498|  8.8458e+00|   -4.045690|   -4.132883|   -4.626988|   -4.424583|   -4.192329|  -10.576382|    1.990936|
|         499|  8.8442e+00|   -4.040033|   -4.126442|   -4.622285|   -4.420573|   -4.186777|  -10.570680|    1.993461|
|         500|  8.8428e+00|   -4.034445|   -4.120049|   -4.617631|   -4.416588|   -4.181245|  -10.564806|    1.996106|
|         501|  8.8408e+00|   -4.028957|   -4.113735|   -4.613049|   -4.412674|   -4.175773|  -10.558747|    1.998870|
|         502|  8.8389e+00|   -4.023567|   -4.107502|   -4.608541|   -4.408833|   -4.170362|  -10.552493|    2.001749|
|         503|  8.8372e+00|   -4.018302|   -4.101377|   -4.604129|   -4.405110|   -4.165048|  -10.546046|    2.004742|
|         504|  8.8353e+00|   -4.013133|   -4.095339|   -4.599825|   -4.401431|   -4.159792|  -10.539422|    2.007848|
|         505|  8.8335e+00|   -4.008076|   -4.089404|   -4.595658|   -4.397820|   -4.154616|  -10.532625|    2.011063|
|         506|  8.8317e+00|   -4.003138|   -4.083583|   -4.591632|   -4.394296|   -4.149534|  -10.525623|    2.014386|
|         507|  8.8301e+00|   -3.998320|   -4.077873|   -4.587749|   -4.390851|   -4.144538|  -10.518416|    2.017813|
|         508|  8.8229e+00|   -3.993635|   -4.072292|   -4.584035|   -4.387506|   -4.139650|  -10.518137|    2.017922|
|         509|  8.8156e+00|   -3.993618|   -4.072243|   -4.584096|   -4.387578|   -4.139739|  -10.517794|    2.018053|
|         510|  8.8084e+00|   -3.993603|   -4.072191|   -4.584162|   -4.387663|   -4.139851|  -10.517383|    2.018211|
|         511|  8.8020e+00|   -3.993592|   -4.072139|   -4.584231|   -4.387764|   -4.139994|  -10.516890|    2.018401|
|         512|  8.7956e+00|   -3.993587|   -4.072092|   -4.584298|   -4.387884|   -4.140177|  -10.516299|    2.018630|
|         513|  8.7896e+00|   -3.993595|   -4.072056|   -4.584361|   -4.388024|   -4.140414|  -10.515591|    2.018906|
|         514|  8.7838e+00|   -3.993623|   -4.072043|   -4.584413|   -4.388189|   -4.140724|  -10.514743|    2.019239|
|         515|  8.7780e+00|   -3.993680|   -4.072062|   -4.584439|   -4.388381|   -4.141126|  -10.513728|    2.019642|
|         516|  8.7720e+00|   -3.993777|   -4.072131|   -4.584418|   -4.388601|   -4.141646|  -10.512514|    2.020129|
|         517|  8.7670e+00|   -3.993927|   -4.072271|   -4.584328|   -4.388848|   -4.142315|  -10.511062|    2.020719|
|         518|  8.7620e+00|   -3.994146|   -4.072504|   -4.584133|   -4.389121|   -4.143168|  -10.509328|    2.021435|
|         519|  8.7571e+00|   -3.994446|   -4.072850|   -4.583792|   -4.389407|   -4.144237|  -10.507260|    2.022304|
|         520|  8.7521e+00|   -3.994826|   -4.073315|   -4.583252|   -4.389684|   -4.145540|  -10.504795|    2.023361|
|         521|  8.7485e+00|   -3.995266|   -4.073877|   -4.582458|   -4.389919|   -4.147060|  -10.501857|    2.024650|
|         522|  8.7448e+00|   -3.995699|   -4.074454|   -4.581359|   -4.390055|   -4.148717|  -10.498357|    2.026220|
|         523|  8.7412e+00|   -3.995961|   -4.074842|   -4.579916|   -4.389969|   -4.150285|  -10.494196|    2.028138|
|         524|  8.7383e+00|   -3.995783|   -4.074692|   -4.578124|   -4.389498|   -4.151363|  -10.489251|    2.030481|
|         525|  8.7358e+00|   -3.994745|   -4.073447|   -4.576016|   -4.388420|   -4.151296|  -10.483370|    2.033348|
|         526|  8.7346e+00|   -3.992289|   -4.070374|   -4.573665|   -4.386444|   -4.149179|  -10.476377|    2.036865|
|         527|  8.7331e+00|   -3.987812|   -4.064686|   -4.571156|   -4.383257|   -4.143991|  -10.468509|    2.040916|
|         528|  8.7318e+00|   -3.981501|   -4.056616|   -4.568817|   -4.379081|   -4.135826|  -10.460482|    2.045043|
|         529|  8.7305e+00|   -3.974899|   -4.048113|   -4.567186|   -4.375015|   -4.126866|  -10.452250|    2.049249|
|         530|  8.7289e+00|   -3.968582|   -4.039968|   -4.565976|   -4.371264|   -4.118059|  -10.443823|    2.053534|
|         531|  8.7275e+00|   -3.962955|   -4.032714|   -4.564967|   -4.367959|   -4.110087|  -10.435213|    2.057899|
|         532|  8.7259e+00|   -3.958175|   -4.026577|   -4.563928|   -4.365082|   -4.103265|  -10.426439|    2.062343|
|         533|  8.7243e+00|   -3.954242|   -4.021561|   -4.562690|   -4.362603|   -4.097672|  -10.417513|    2.066866|
|         534|  8.7229e+00|   -3.951059|   -4.017547|   -4.561237|   -4.360440|   -4.093229|  -10.408447|    2.071466|
|         535|  8.7216e+00|   -3.948447|   -4.014309|   -4.559534|   -4.358506|   -4.089722|  -10.399249|    2.076140|
|         536|  8.7202e+00|   -3.946226|   -4.011613|   -4.557643|   -4.356694|   -4.086910|  -10.389956|    2.080889|
|         537|  8.7186e+00|   -3.944240|   -4.009247|   -4.555642|   -4.354959|   -4.084567|  -10.380590|    2.085709|
|         538|  8.7169e+00|   -3.942351|   -4.007029|   -4.553594|   -4.353258|   -4.082479|  -10.371161|    2.090598|
[...]
|        3680|  8.1965e+00|   -7.152182|   -7.192163|   -7.738293|   -7.720012|   -7.295090|   -9.298977|    2.406287|
|        3681|  8.1964e+00|   -7.152935|   -7.192545|   -7.738914|   -7.720368|   -7.295409|   -9.297335|    2.406289|
|        3682|  8.1963e+00|   -7.153622|   -7.192895|   -7.739452|   -7.720511|   -7.295673|   -9.295645|    2.406291|
|        3683|  8.1962e+00|   -7.154241|   -7.193214|   -7.739909|   -7.720444|   -7.295886|   -9.293904|    2.406293|
|        3684|  8.1961e+00|   -7.154791|   -7.193501|   -7.740281|   -7.720170|   -7.296046|   -9.292114|    2.406295|
|        3685|  8.1960e+00|   -7.155272|   -7.193756|   -7.740567|   -7.719694|   -7.296154|   -9.290273|    2.406297|
|        3686|  8.1958e+00|   -7.155683|   -7.193982|   -7.740765|   -7.719020|   -7.296211|   -9.288383|    2.406299|
|        3687|  8.1957e+00|   -7.156023|   -7.194177|   -7.740878|   -7.718157|   -7.296218|   -9.286441|    2.406301|
|        3688|  8.1956e+00|   -7.156294|   -7.194343|   -7.740904|   -7.717110|   -7.296178|   -9.284449|    2.406303|
|        3689|  8.1955e+00|   -7.156497|   -7.194481|   -7.740844|   -7.715889|   -7.296092|   -9.282407|    2.406305|
|        3690|  8.1954e+00|   -7.156631|   -7.194591|   -7.740699|   -7.714503|   -7.295960|   -9.280315|    2.406307|
|        3691|  8.1953e+00|   -7.156698|   -7.194676|   -7.740470|   -7.712962|   -7.295786|   -9.278172|    2.406309|
|        3692|  8.1952e+00|   -7.156700|   -7.194735|   -7.740159|   -7.711276|   -7.295571|   -9.275981|    2.406311|
|        3693|  8.1951e+00|   -7.156637|   -7.194770|   -7.739767|   -7.709456|   -7.295317|   -9.273740|    2.406313|
|        3694|  8.1950e+00|   -7.156512|   -7.194783|   -7.739296|   -7.707514|   -7.295027|   -9.271451|    2.406314|
|        3695|  8.1949e+00|   -7.156327|   -7.194774|   -7.738749|   -7.705461|   -7.294703|   -9.269115|    2.406316|
|        3696|  8.1948e+00|   -7.156084|   -7.194746|   -7.738129|   -7.703308|   -7.294348|   -9.266732|    2.406318|
|        3697|  8.1946e+00|   -7.155786|   -7.194699|   -7.737436|   -7.701067|   -7.293964|   -9.264303|    2.406319|
|        3698|  8.1945e+00|   -7.155435|   -7.194637|   -7.736675|   -7.698752|   -7.293554|   -9.261830|    2.406321|
|        3699|  8.1945e+00|   -7.155035|   -7.194559|   -7.735851|   -7.696372|   -7.293122|   -9.259314|    2.406322|
|        3700|  8.1943e+00|   -7.154587|   -7.194469|   -7.734967|   -7.693940|   -7.292669|   -9.256756|    2.406324|
|        3701|  8.1942e+00|   -7.154097|   -7.194367|   -7.734028|   -7.691466|   -7.292199|   -9.254158|    2.406325|
|        3702|  8.1941e+00|   -7.153567|   -7.194256|   -7.733038|   -7.688963|   -7.291716|   -9.251521|    2.406326|
|        3703|  8.1939e+00|   -7.153000|   -7.194138|   -7.732000|   -7.686440|   -7.291222|   -9.248846|    2.406328|
|        3704|  8.1939e+00|   -7.152401|   -7.194014|   -7.730918|   -7.683907|   -7.290719|   -9.246136|    2.406329|
|        3705|  8.1938e+00|   -7.151771|   -7.193886|   -7.729797|   -7.681374|   -7.290211|   -9.243393|    2.406330|
|        3706|  8.1937e+00|   -7.151112|   -7.193756|   -7.728639|   -7.678850|   -7.289698|   -9.240617|    2.406331|
|        3707|  8.1936e+00|   -7.150429|   -7.193624|   -7.727448|   -7.676344|   -7.289183|   -9.237812|    2.406332|
|        3708|  8.1935e+00|   -7.149724|   -7.193494|   -7.726231|   -7.673864|   -7.288669|   -9.234979|    2.406332|
|        3709|  8.1934e+00|   -7.149003|   -7.193367|   -7.724994|   -7.671419|   -7.288161|   -9.232121|    2.406333|
|        3710|  8.1933e+00|   -7.148268|   -7.193245|   -7.723740|   -7.669017|   -7.287660|   -9.229239|    2.406333|
|        3711|  8.1931e+00|   -7.147521|   -7.193129|   -7.722470|   -7.666664|   -7.287168|   -9.226335|    2.406334|
|        3712|  8.1928e+00|   -7.146767|   -7.193020|   -7.721189|   -7.664367|   -7.286687|   -9.223412|    2.406334|
|        3713|  8.1926e+00|   -7.146008|   -7.192921|   -7.719904|   -7.662133|   -7.286220|   -9.220473|    2.406334|
|        3714|  8.1924e+00|   -7.145249|   -7.192832|   -7.718619|   -7.659968|   -7.285770|   -9.217519|    2.406334|
|        3715|  8.1922e+00|   -7.144493|   -7.192756|   -7.717337|   -7.657877|   -7.285340|   -9.214552|    2.406334|
|        3716|  8.1919e+00|   -7.143742|   -7.192694|   -7.716065|   -7.655866|   -7.284930|   -9.211575|    2.406334|
|        3717|  8.1917e+00|   -7.143001|   -7.192647|   -7.714805|   -7.653940|   -7.284545|   -9.208591|    2.406334|
|        3718|  8.1915e+00|   -7.142273|   -7.192617|   -7.713561|   -7.652102|   -7.284186|   -9.205601|    2.406333|
|        3719|  8.1912e+00|   -7.141560|   -7.192605|   -7.712337|   -7.650358|   -7.283855|   -9.202608|    2.406333|
|        3720|  8.1910e+00|   -7.140864|   -7.192613|   -7.711137|   -7.648710|   -7.283554|   -9.199614|    2.406332|
|        3721|  8.1909e+00|   -7.140190|   -7.192641|   -7.709962|   -7.647163|   -7.283283|   -9.196621|    2.406331|
|        3722|  8.1907e+00|   -7.139538|   -7.192691|   -7.708818|   -7.645720|   -7.283045|   -9.193632|    2.406330|
|        3723|  8.1905e+00|   -7.138912|   -7.192765|   -7.707709|   -7.644383|   -7.282842|   -9.190649|    2.406329|
|        3724|  8.1902e+00|   -7.138314|   -7.192861|   -7.706635|   -7.643156|   -7.282675|   -9.187673|    2.406327|
|        3725|  8.1900e+00|   -7.137745|   -7.192983|   -7.705599|   -7.642041|   -7.282544|   -9.184708|    2.406326|
|        3726|  8.1899e+00|   -7.137206|   -7.193129|   -7.704603|   -7.641039|   -7.282449|   -9.181755|    2.406324|
|        3727|  8.1897e+00|   -7.136700|   -7.193300|   -7.703650|   -7.640153|   -7.282392|   -9.178817|    2.406322|
|        3728|  8.1894e+00|   -7.136227|   -7.193498|   -7.702743|   -7.639382|   -7.282374|   -9.175895|    2.406320|
|        3729|  8.1892e+00|   -7.135791|   -7.193722|   -7.701886|   -7.638730|   -7.282396|   -9.172991|    2.406318|
|        3730|  8.1889e+00|   -7.135392|   -7.193974|   -7.701079|   -7.638197|   -7.282458|   -9.170108|    2.406315|
|        3731|  8.1887e+00|   -7.135031|   -7.194252|   -7.700323|   -7.637785|   -7.282560|   -9.167248|    2.406313|
|        3732|  8.1885e+00|   -7.134709|   -7.194558|   -7.699621|   -7.637495|   -7.282703|   -9.164411|    2.406310|
|        3733|  8.1883e+00|   -7.134428|   -7.194891|   -7.698975|   -7.637326|   -7.282887|   -9.161601|    2.406307|
|        3734|  8.1881e+00|   -7.134189|   -7.195252|   -7.698388|   -7.637279|   -7.283113|   -9.158819|    2.406304|
|        3735|  8.1879e+00|   -7.133992|   -7.195641|   -7.697860|   -7.637354|   -7.283380|   -9.156067|    2.406300|
|        3736|  8.1877e+00|   -7.133840|   -7.196057|   -7.697394|   -7.637553|   -7.283690|   -9.153346|    2.406297|
|        3737|  8.1875e+00|   -7.133732|   -7.196501|   -7.696990|   -7.637873|   -7.284042|   -9.150658|    2.406293|
|        3738|  8.1873e+00|   -7.133669|   -7.196971|   -7.696649|   -7.638316|   -7.284435|   -9.148005|    2.406289|
|        3739|  8.1870e+00|   -7.133651|   -7.197469|   -7.696371|   -7.638880|   -7.284869|   -9.145388|    2.406285|
|        3740|  8.1868e+00|   -7.133678|   -7.197992|   -7.696157|   -7.639564|   -7.285343|   -9.142809|    2.406281|
|        3741|  8.1866e+00|   -7.133750|   -7.198540|   -7.696009|   -7.640369|   -7.285857|   -9.140269|    2.406277|
|        3742|  8.1864e+00|   -7.133867|   -7.199113|   -7.695927|   -7.641292|   -7.286409|   -9.137770|    2.406272|
|        3743|  8.1862e+00|   -7.134030|   -7.199709|   -7.695911|   -7.642332|   -7.286999|   -9.135313|    2.406267|
|        3744|  8.1860e+00|   -7.134237|   -7.200328|   -7.695961|   -7.643488|   -7.287626|   -9.132899|    2.406262|
|        3745|  8.1858e+00|   -7.134488|   -7.200968|   -7.696079|   -7.644759|   -7.288289|   -9.130530|    2.406257|
|        3746|  8.1857e+00|   -7.134784|   -7.201630|   -7.696264|   -7.646141|   -7.288986|   -9.128207|    2.406251|
|        3747|  8.1857e+00|   -7.135122|   -7.202312|   -7.696515|   -7.647634|   -7.289717|   -9.125930|    2.406246|
|        3748|  8.1856e+00|   -7.135504|   -7.203012|   -7.696832|   -7.649235|   -7.290479|   -9.123702|    2.406240|
|        3749|  8.1855e+00|   -7.135927|   -7.203730|   -7.697216|   -7.650941|   -7.291273|   -9.121523|    2.406234|
|        3750|  8.1854e+00|   -7.136391|   -7.204464|   -7.697665|   -7.652750|   -7.292095|   -9.119394|    2.406228|
+-----------------------------------------------------------------------+
|        File Writing Summary       |              Filename             |
+-----------------------------------------------------------------------+
|SU2 binary restart                 |restart_flow.dat                   |
|Paraview                           |flow.vtu                           |
|Paraview surface                   |surface_flow.vtu                   |
+-----------------------------------------------------------------------+
+--------------------------------------------------------------------------------------------------------------------+
|  Inner_Iter|   Time(sec)|    rms[Rho]|   rms[RhoU]|   rms[RhoV]|   rms[RhoW]|   rms[RhoE]|     rms[nu]|          CD|
+--------------------------------------------------------------------------------------------------------------------+
|        3751|  8.1910e+00|   -7.136897|   -7.205214|   -7.698180|   -7.654658|   -7.292945|   -9.117317|    2.406221|
|        3752|  8.1910e+00|   -7.137441|   -7.205978|   -7.698761|   -7.656663|   -7.293820|   -9.115292|    2.406215|
|        3753|  8.1909e+00|   -7.138024|   -7.206755|   -7.699405|   -7.658762|   -7.294720|   -9.113320|    2.406208|
|        3754|  8.1909e+00|   -7.138644|   -7.207543|   -7.700112|   -7.660949|   -7.295642|   -9.111402|    2.406201|
|        3755|  8.1909e+00|   -7.139300|   -7.208341|   -7.700881|   -7.663222|   -7.296585|   -9.109539|    2.406194|
|        3756|  8.1908e+00|   -7.139991|   -7.209148|   -7.701711|   -7.665576|   -7.297546|   -9.107732|    2.406186|
|        3757|  8.1908e+00|   -7.140715|   -7.209963|   -7.702600|   -7.668006|   -7.298524|   -9.105982|    2.406179|
|        3758|  8.1907e+00|   -7.141471|   -7.210782|   -7.703546|   -7.670506|   -7.299515|   -9.104289|    2.406171|
|        3759|  8.1906e+00|   -7.142257|   -7.211606|   -7.704549|   -7.673071|   -7.300518|   -9.102655|    2.406163|
|        3760|  8.1905e+00|   -7.143073|   -7.212433|   -7.705607|   -7.675696|   -7.301532|   -9.101079|    2.406155|
|        3761|  8.1905e+00|   -7.143916|   -7.213261|   -7.706720|   -7.678375|   -7.302554|   -9.099563|    2.406147|
|        3762|  8.1904e+00|   -7.144785|   -7.214089|   -7.707884|   -7.681101|   -7.303581|   -9.098108|    2.406138|
|        3763|  8.1903e+00|   -7.145678|   -7.214914|   -7.709097|   -7.683867|   -7.304612|   -9.096714|    2.406130|
|        3764|  8.1902e+00|   -7.146593|   -7.215736|   -7.710356|   -7.686666|   -7.305643|   -9.095381|    2.406121|
|        3765|  8.1902e+00|   -7.147527|   -7.216552|   -7.711660|   -7.689491|   -7.306671|   -9.094110|    2.406112|
|        3766|  8.1901e+00|   -7.148479|   -7.217362|   -7.713007|   -7.692332|   -7.307695|   -9.092903|    2.406103|
|        3767|  8.1901e+00|   -7.149447|   -7.218162|   -7.714393|   -7.695183|   -7.308711|   -9.091758|    2.406094|
|        3768|  8.1900e+00|   -7.150428|   -7.218953|   -7.715817|   -7.698034|   -7.309719|   -9.090678|    2.406084|
|        3769|  8.1899e+00|   -7.151422|   -7.219732|   -7.717277|   -7.700876|   -7.310714|   -9.089662|    2.406075|
|        3770|  8.1899e+00|   -7.152425|   -7.220498|   -7.718769|   -7.703700|   -7.311696|   -9.088712|    2.406065|
|        3771|  8.1899e+00|   -7.153436|   -7.221249|   -7.720290|   -7.706497|   -7.312661|   -9.087827|    2.406055|
|        3772|  8.1898e+00|   -7.154454|   -7.221986|   -7.721840|   -7.709256|   -7.313609|   -9.087008|    2.406045|
|        3773|  8.1897e+00|   -7.155476|   -7.222706|   -7.723412|   -7.711968|   -7.314536|   -9.086255|    2.406035|
|        3774|  8.1897e+00|   -7.156499|   -7.223408|   -7.725005|   -7.714622|   -7.315439|   -9.085569|    2.406024|
|        3775|  8.1897e+00|   -7.157522|   -7.224091|   -7.726615|   -7.717208|   -7.316318|   -9.084951|    2.406014|
|        3776|  8.1896e+00|   -7.158542|   -7.224754|   -7.728239|   -7.719716|   -7.317171|   -9.084401|    2.406004|
|        3777|  8.1895e+00|   -7.159558|   -7.225396|   -7.729872|   -7.722134|   -7.317994|   -9.083919|    2.405993|
|        3778|  8.1894e+00|   -7.160567|   -7.226016|   -7.731512|   -7.724454|   -7.318786|   -9.083506|    2.405982|
|        3779|  8.1894e+00|   -7.161568|   -7.226614|   -7.733157|   -7.726665|   -7.319547|   -9.083161|    2.405971|
|        3780|  8.1893e+00|   -7.162560|   -7.227189|   -7.734800|   -7.728757|   -7.320275|   -9.082887|    2.405960|
|        3781|  8.1892e+00|   -7.163539|   -7.227740|   -7.736440|   -7.730720|   -7.320967|   -9.082682|    2.405949|
|        3782|  8.1892e+00|   -7.164503|   -7.228266|   -7.738071|   -7.732546|   -7.321621|   -9.082547|    2.405938|
|        3783|  8.1891e+00|   -7.165452|   -7.228768|   -7.739692|   -7.734226|   -7.322239|   -9.082483|    2.405927|
|        3784|  8.1890e+00|   -7.166384|   -7.229245|   -7.741299|   -7.735751|   -7.322819|   -9.082490|    2.405915|
|        3785|  8.1889e+00|   -7.167296|   -7.229697|   -7.742887|   -7.737114|   -7.323357|   -9.082568|    2.405904|
|        3786|  8.1889e+00|   -7.168185|   -7.230123|   -7.744452|   -7.738310|   -7.323854|   -9.082717|    2.405893|
|        3787|  8.1888e+00|   -7.169052|   -7.230525|   -7.745991|   -7.739331|   -7.324310|   -9.082939|    2.405881|
|        3788|  8.1887e+00|   -7.169895|   -7.230901|   -7.747501|   -7.740174|   -7.324724|   -9.083232|    2.405869|
|        3789|  8.1887e+00|   -7.170712|   -7.231253|   -7.748978|   -7.740835|   -7.325098|   -9.083599|    2.405858|
|        3790|  8.1886e+00|   -7.171504|   -7.231580|   -7.750419|   -7.741311|   -7.325429|   -9.084038|    2.405846|
|        3791|  8.1885e+00|   -7.172270|   -7.231884|   -7.751822|   -7.741600|   -7.325721|   -9.084550|    2.405834|
|        3792|  8.1885e+00|   -7.173009|   -7.232165|   -7.753184|   -7.741701|   -7.325973|   -9.085135|    2.405823|
|        3793|  8.1884e+00|   -7.173720|   -7.232425|   -7.754500|   -7.741615|   -7.326186|   -9.085795|    2.405811|
|        3794|  8.1883e+00|   -7.174402|   -7.232663|   -7.755768|   -7.741344|   -7.326359|   -9.086528|    2.405799|
|        3795|  8.1882e+00|   -7.175055|   -7.232881|   -7.756986|   -7.740889|   -7.326493|   -9.087335|    2.405787|
|        3796|  8.1881e+00|   -7.175678|   -7.233080|   -7.758152|   -7.740256|   -7.326591|   -9.088217|    2.405775|
|        3797|  8.1880e+00|   -7.176272|   -7.233260|   -7.759263|   -7.739447|   -7.326652|   -9.089173|    2.405764|
|        3798|  8.1879e+00|   -7.176835|   -7.233424|   -7.760316|   -7.738469|   -7.326679|   -9.090204|    2.405752|
|        3799|  8.1878e+00|   -7.177368|   -7.233572|   -7.761311|   -7.737327|   -7.326672|   -9.091311|    2.405740|
|        3800|  8.1877e+00|   -7.177871|   -7.233706|   -7.762245|   -7.736028|   -7.326633|   -9.092493|    2.405728|
|        3801|  8.1876e+00|   -7.178344|   -7.233827|   -7.763117|   -7.734580|   -7.326564|   -9.093750|    2.405717|
|        3802|  8.1875e+00|   -7.178789|   -7.233936|   -7.763926|   -7.732991|   -7.326468|   -9.095083|    2.405705|
|        3803|  8.1875e+00|   -7.179204|   -7.234035|   -7.764672|   -7.731271|   -7.326345|   -9.096492|    2.405693|
|        3804|  8.1874e+00|   -7.179591|   -7.234125|   -7.765353|   -7.729428|   -7.326198|   -9.097977|    2.405682|
|        3805|  8.1873e+00|   -7.179953|   -7.234209|   -7.765971|   -7.727473|   -7.326030|   -9.099538|    2.405670|
|        3806|  8.1872e+00|   -7.180286|   -7.234287|   -7.766522|   -7.725414|   -7.325840|   -9.101176|    2.405659|
|        3807|  8.1871e+00|   -7.180593|   -7.234361|   -7.767006|   -7.723262|   -7.325632|   -9.102891|    2.405647|
|        3808|  8.1870e+00|   -7.180873|   -7.234433|   -7.767423|   -7.721027|   -7.325407|   -9.104682|    2.405636|
|        3809|  8.1869e+00|   -7.181129|   -7.234504|   -7.767775|   -7.718720|   -7.325168|   -9.106549|    2.405625|
|        3810|  8.1869e+00|   -7.181360|   -7.234576|   -7.768063|   -7.716352|   -7.324917|   -9.108494|    2.405613|
|        3811|  8.1868e+00|   -7.181569|   -7.234650|   -7.768289|   -7.713932|   -7.324656|   -9.110516|    2.405602|
|        3812|  8.1867e+00|   -7.181756|   -7.234728|   -7.768453|   -7.711470|   -7.324388|   -9.112615|    2.405591|
|        3813|  8.1867e+00|   -7.181927|   -7.234814|   -7.768565|   -7.708977|   -7.324119|   -9.114791|    2.405581|
|        3814|  8.1865e+00|   -7.182079|   -7.234907|   -7.768620|   -7.706462|   -7.323848|   -9.117045|    2.405570|
|        3815|  8.1865e+00|   -7.182214|   -7.235009|   -7.768616|   -7.703934|   -7.323575|   -9.119375|    2.405559|
|        3816|  8.1864e+00|   -7.182331|   -7.235122|   -7.768556|   -7.701402|   -7.323304|   -9.121783|    2.405549|
|        3817|  8.1863e+00|   -7.182434|   -7.235247|   -7.768442|   -7.698874|   -7.323038|   -9.124268|    2.405538|
|        3818|  8.1863e+00|   -7.182524|   -7.235386|   -7.768278|   -7.696362|   -7.322778|   -9.126830|    2.405528|
|        3819|  8.1861e+00|   -7.182602|   -7.235541|   -7.768066|   -7.693871|   -7.322526|   -9.129469|    2.405518|
|        3820|  8.1861e+00|   -7.182669|   -7.235712|   -7.767810|   -7.691409|   -7.322285|   -9.132185|    2.405508|
|        3821|  8.1860e+00|   -7.182728|   -7.235902|   -7.767513|   -7.688984|   -7.322057|   -9.134978|    2.405499|
|        3822|  8.1859e+00|   -7.182780|   -7.236111|   -7.767179|   -7.686603|   -7.321845|   -9.137847|    2.405489|
|        3823|  8.1858e+00|   -7.182827|   -7.236342|   -7.766811|   -7.684272|   -7.321651|   -9.140792|    2.405480|
|        3824|  8.1858e+00|   -7.182871|   -7.236594|   -7.766411|   -7.681999|   -7.321476|   -9.143814|    2.405471|
|        3825|  8.1857e+00|   -7.182917|   -7.236871|   -7.765985|   -7.679790|   -7.321326|   -9.146911|    2.405462|
|        3826|  8.1856e+00|   -7.182962|   -7.237173|   -7.765534|   -7.677649|   -7.321199|   -9.150084|    2.405453|
|        3827|  8.1855e+00|   -7.183008|   -7.237501|   -7.765062|   -7.675581|   -7.321096|   -9.153331|    2.405445|
|        3828|  8.1855e+00|   -7.183059|   -7.237856|   -7.764573|   -7.673594|   -7.321021|   -9.156653|    2.405436|
|        3829|  8.1854e+00|   -7.183115|   -7.238239|   -7.764070|   -7.671690|   -7.320974|   -9.160049|    2.405428|
|        3830|  8.1853e+00|   -7.183176|   -7.238650|   -7.763556|   -7.669874|   -7.320957|   -9.163518|    2.405420|
|        3831|  8.1853e+00|   -7.183245|   -7.239091|   -7.763034|   -7.668151|   -7.320971|   -9.167060|    2.405412|
|        3832|  8.1853e+00|   -7.183323|   -7.239562|   -7.762511|   -7.666524|   -7.321018|   -9.170674|    2.405405|
|        3833|  8.1852e+00|   -7.183413|   -7.240065|   -7.761987|   -7.664997|   -7.321100|   -9.174358|    2.405398|
|        3834|  8.1850e+00|   -7.183513|   -7.240598|   -7.761465|   -7.663573|   -7.321217|   -9.178114|    2.405391|
|        3835|  8.1850e+00|   -7.183627|   -7.241164|   -7.760949|   -7.662255|   -7.321369|   -9.181938|    2.405384|
|        3836|  8.1849e+00|   -7.183755|   -7.241762|   -7.760442|   -7.661046|   -7.321559|   -9.185830|    2.405378|
|        3837|  8.1849e+00|   -7.183898|   -7.242394|   -7.759947|   -7.659949|   -7.321787|   -9.189790|    2.405372|
|        3838|  8.1847e+00|   -7.184059|   -7.243059|   -7.759469|   -7.658967|   -7.322055|   -9.193815|    2.405366|
|        3839|  8.1845e+00|   -7.184240|   -7.243758|   -7.759008|   -7.658100|   -7.322364|   -9.197905|    2.405360|
