Nodes: tri[0067,0156]
Tasks: 128
NPN:   64

-------------------------------------------------------------------------
|    ___ _   _ ___                                                      |
|   / __| | | |_  )   Release 7.5.1 "Blackbird"                         |
|   \__ \ |_| |/ /                                                      |
|   |___/\___//___|   Suite (Computational Fluid Dynamics Code)         |
|                                                                       |
-------------------------------------------------------------------------
| SU2 Project Website: https://su2code.github.io                        |
|                                                                       |
| The SU2 Project is maintained by the SU2 Foundation                   |
| (http://su2foundation.org)                                            |
-------------------------------------------------------------------------
| Copyright 2012-2023, SU2 Contributors                                 |
|                                                                       |
| SU2 is free software; you can redistribute it and/or                  |
| modify it under the terms of the GNU Lesser General Public            |
| License as published by the Free Software Foundation; either          |
| version 2.1 of the License, or (at your option) any later version.    |
|                                                                       |
| SU2 is distributed in the hope that it will be useful,                |
| but WITHOUT ANY WARRANTY; without even the implied warranty of        |
| MERCHANTABILITY or FITNESS FOR A PARTICULAR PURPOSE. See the GNU      |
| Lesser General Public License for more details.                       |
|                                                                       |
| You should have received a copy of the GNU Lesser General Public      |
| License along with SU2. If not, see <http://www.gnu.org/licenses/>.   |
-------------------------------------------------------------------------

Parsing config file for zone 0

----------------- Physical Case Definition ( Zone 0 ) -------------------
Compressible RANS equations.
Turbulence model: Negative-Spalart-Allmaras
Hybrid RANS/LES: No Hybrid RANS/LES
Mach number: 9.
Angle of attack (AoA): 0 deg, and angle of sideslip (AoS): 0 deg.
Reynolds number: 1.02934e+09. Reference length 5.
Reading and writing binary SU2 native restart files.
Read flow solution from: restart_flow.dat.
Non-Dimensional simulation (V=1.0, Rho=1.0, T=1.0 at the farfield).
The reference area will be computed using y(2D) or z(3D) projection.
The semi-span will be computed using the max y(3D) value.
The reference length is 0.64607 m.
Reference origin for moment evaluation is (0.25, 0, 0).
Surface(s) where the force coefficients are evaluated: ORION_SURFACE.

Input mesh file name: medium.su2

--------------- Space Numerical Integration ( Zone 0 ) ------------------
Jameson-Schmidt-Turkel scheme (2nd order in space) for the flow inviscid terms.
JST viscous coefficients (2nd & 4th): 0.5, 0.02.
The method includes a grid stretching correction (p = 0.3).
Scalar upwind solver for the turbulence model.
First order integration in space.
Average of gradients with correction (viscous flow terms).
Average of gradients with correction (viscous turbulence terms).
Gradient for upwind reconstruction: Green-Gauss.
Gradient for viscous and source terms: Green-Gauss.

--------------- Time Numerical Integration  ( Zone 0 ) ------------------
Local time stepping (steady state simulation).
Euler implicit method for the flow equations.
FGMRES is used for solving the linear system.
Using a ILU(0) preconditioning.
Convergence criteria of the linear solver: 1e-06.
Max number of linear iterations: 100.
No CFL adaptation.
Courant-Friedrichs-Lewy number:   0.0005
Euler implicit time integration for the turbulence model.

------------------ Convergence Criteria  ( Zone 0 ) ---------------------
Maximum number of solver subiterations: 999999.
Begin convergence monitoring at iteration 5.
Residual minimum value: 1e-8.
Cauchy series min. value: 1e-10.
Number of Cauchy elements: 100.
Begin windowed time average at iteration 0.

-------------------- Output Information ( Zone 0 ) ----------------------
File writing frequency: 
+------------------------------------+
|                     File| Frequency|
+------------------------------------+
|                  RESTART|       150|
|                 PARAVIEW|       150|
|         SURFACE_PARAVIEW|       150|
+------------------------------------+
Writing the convergence history file every 1 inner iterations.
Writing the screen convergence history every 1 inner iterations.
The tabular file format is CSV (.csv).
Convergence history file name: history.
Forces breakdown file name: forces_breakdown.dat.
Surface file name: surface_flow.
Volume file name: flow.
Restart file name: restart_flow.

------------- Config File Boundary Information ( Zone 0 ) ---------------
+-----------------------------------------------------------------------+
|                        Marker Type|                        Marker Name|
+-----------------------------------------------------------------------+
|                          Far-field|                           FARFIELD|
+-----------------------------------------------------------------------+
|                     Heat flux wall|                      ORION_SURFACE|
+-----------------------------------------------------------------------+

-------------------- Output Preprocessing ( Zone 0 ) --------------------

WARNING: SURFACE_PRESSURE_DROP can only be computed for at least 2 surfaces (outlet, inlet, ...)

Screen output fields: INNER_ITER, WALL_TIME, MIN_DELTA_TIME, MAX_DELTA_TIME, MIN_CFL, MAX_CFL, AVG_CFL, RMS_DENSITY, RMS_MOMENTUM-X, RMS_MOMENTUM-Y, RMS_MOMENTUM-Z, RMS_ENERGY, RMS_NU_TILDE, DRAG
History output group(s): ITER, RMS_RES
Convergence field(s): RMS_DENSITY
Warning: No (valid) fields chosen for time convergence monitoring. Time convergence monitoring inactive.
Volume output fields: COORDINATES, SOLUTION, PRIMITIVE

------------------- Geometry Preprocessing ( Zone 0 ) -------------------
Three dimensional problem.
26648118 grid points before partitioning.
74775078 volume elements before partitioning.
2 surface markers.
1778 boundary elements in index 0 (Marker = FARFIELD).
811194 boundary elements in index 1 (Marker = ORION_SURFACE).
Executing the partitioning functions.
Building the graph adjacency structure.
Calling ParMETIS... graph partitioning complete (2763415 edge cuts).
Distributing ParMETIS coloring.
Rebalancing vertices.
Rebalancing volume element connectivity.
Rebalancing markers and surface elements.
29624692 vertices including ghost points. 
78760198 interior elements including halo cells. 
33893606 tetrahedra.
44681610 prisms.
184982 pyramids.
Establishing MPI communication patterns.
Setting point connectivity.
Renumbering points (Reverse Cuthill McKee Ordering).
Recomputing point connectivity.
Setting element connectivity.
Checking the numerical grid orientation.
All volume elements are correctly orientend.
All surface elements are correctly orientend.
Identifying edges and vertices.
Setting the control volume structure.
Volume of the computational grid: 535139.
Searching for the closest normal neighbors to the surfaces.
Storing a mapping from global to local point index.
Compute the surface curvature.
Max K: 137.039. Mean K: 3.89106. Standard deviation K: 7.38179.
Checking for periodicity.
Computing mesh quality statistics for the dual control volumes.
+--------------------------------------------------------------+
|           Mesh Quality Metric|        Minimum|        Maximum|
+--------------------------------------------------------------+
|    Orthogonality Angle (deg.)|        54.3699|             90|
|     CV Face Area Aspect Ratio|        1.00113|         100241|
|           CV Sub-Volume Ratio|         1.0025|        34.9431|
+--------------------------------------------------------------+
Finding max control volume width.
Communicating number of neighbors.
Reference area = 11.5308 m^2.
Semi-span length = 2.49998 m.
Wetted area = 57.9043 m^2.
Area projection in the x-plane = 19.6335 m^2, y-plane = 11.5309 m^2, z-plane = 11.5308 m^2.
Max. coordinate in the x-direction = 2.575 m, y-direction = 2.49998 m, z-direction = 2.5 m.
Min. coordinate in the x-direction = -0.71 m, y-direction = -2.49999 m, z-direction = -2.49999 m.
Computing wall distances.

-------------------- Solver Preprocessing ( Zone 0 ) --------------------
Viscous flow: Computing pressure using the ideal gas law
based on the free-stream temperature and a density computed
from the Reynolds number.
Force coefficients computed using free-stream values.

-- Models:
+------------------------------------------------------------------------------+
|          Viscosity Model|        Conductivity Model|              Fluid Model|
+------------------------------------------------------------------------------+
|               SUTHERLAND|          CONSTANT_PRANDTL|             STANDARD_AIR|
+------------------------------------------------------------------------------+
-- Fluid properties:
+------------------------------------------------------------------------------+
|                  Name|    Dim. value|    Ref. value|      Unit|Non-dim. value|
+------------------------------------------------------------------------------+
|        Ref. Viscosity|     1.716e-05|        3683.6|   N.s/m^2|   4.65848e-09|
|      Sutherland Temp.|        273.15|        288.15|         K|      0.947944|
|     Sutherland Const.|         110.4|        288.15|         K|      0.383134|
+------------------------------------------------------------------------------+
|        Prandtl (Lam.)|             -|             -|         -|          0.72|
|       Prandtl (Turb.)|             -|             -|         -|           0.9|
+------------------------------------------------------------------------------+
|          Gas Constant|       287.058|       32552.4|  N.m/kg.K|    0.00881834|
|      Spec. Heat Ratio|             -|             -|         -|           1.4|
+------------------------------------------------------------------------------+
-- Initial and free-stream conditions:
+------------------------------------------------------------------------------+
|                  Name|    Dim. value|    Ref. value|      Unit|Non-dim. value|
+------------------------------------------------------------------------------+
|       Static Pressure|       99485.6|   1.12817e+07|        Pa|    0.00881834|
|               Density|       1.20274|       1.20274|    kg/m^3|             1|
|           Temperature|        288.15|        288.15|         K|             1|
|          Total Energy|   4.89677e+06|   9.37997e+06|   m^2/s^2|      0.522046|
|            Velocity-X|       3062.67|       3062.67|       m/s|             1|
|            Velocity-Y|             0|       3062.67|       m/s|             0|
|            Velocity-Z|             0|       3062.67|       m/s|             0|
|    Velocity Magnitude|       3062.67|       3062.67|       m/s|             1|
+------------------------------------------------------------------------------+
|             Viscosity|    1.7893e-05|        3683.6|   N.s/m^2|   4.85747e-09|
|          Conductivity|             -|    1.1991e+08|   W/m^2.K|             -|
|     Turb. Kin. Energy|       35174.9|   9.37997e+06|   m^2/s^2|       0.00375|
|     Spec. Dissipation|   2.36441e+08|       3062.67|       1/s|       77200.7|
+------------------------------------------------------------------------------+
|           Mach Number|             -|             -|         -|             9|
|       Reynolds Number|             -|             -|         -|   1.02934e+09|
+------------------------------------------------------------------------------+
Initialize Jacobian structure (Navier-Stokes). MG level: 0.
Initialize Jacobian structure (SA model).

------------------- Numerics Preprocessing ( Zone 0 ) -------------------

----------------- Integration Preprocessing ( Zone 0 ) ------------------

------------------- Iteration Preprocessing ( Zone 0 ) ------------------
Euler/Navier-Stokes/RANS fluid iteration.

------------------------------ Begin Solver -----------------------------

Simulation Run using the Single-zone Driver
WARNING: SU2 was not compiled for an AVX-capable architecture. Performance could be better,
         see https://su2code.github.io/docs_v7/Build-SU2-Linux-MacOS/#compiler-optimizations
+-------------------------------------------------------------------------------------------------------------------------------------------------------------------------------------+
|  Inner_Iter|   Time(sec)|      Min DT|      Max DT|     Min CFL|     Max CFL|     Avg CFL|    rms[Rho]|   rms[RhoU]|   rms[RhoV]|   rms[RhoW]|   rms[RhoE]|     rms[nu]|          CD|
+-------------------------------------------------------------------------------------------------------------------------------------------------------------------------------------+
|           0|  7.5068e+00|  1.9670e-17|  1.2412e-03|  5.0000e-04|  5.0000e-04|  5.0000e-04|   -4.845037|   -5.109167|   -5.508565|   -5.508322|   -5.056464|  -10.116191|    3.834731|
|           1|  7.1509e+00|  1.9670e-17|  1.2412e-03|  5.0000e-04|  5.0000e-04|  5.0000e-04|   -4.845026|   -5.109166|   -5.508560|   -5.508316|   -5.056453|  -10.116300|    3.834731|
|           2|  7.0339e+00|  1.9670e-17|  1.2412e-03|  5.0000e-04|  5.0000e-04|  5.0000e-04|   -4.845016|   -5.109164|   -5.508554|   -5.508310|   -5.056441|  -10.116410|    3.834730|
|           3|  6.9140e+00|  1.9670e-17|  1.2412e-03|  5.0000e-04|  5.0000e-04|  5.0000e-04|   -4.845005|   -5.109163|   -5.508548|   -5.508305|   -5.056430|  -10.116375|    3.834730|
|           4|  6.8334e+00|  1.9670e-17|  1.2412e-03|  5.0000e-04|  5.0000e-04|  5.0000e-04|   -4.844995|   -5.109161|   -5.508543|   -5.508299|   -5.056419|  -10.116686|    3.834729|
|           5|  6.7831e+00|  1.9670e-17|  1.2412e-03|  5.0000e-04|  5.0000e-04|  5.0000e-04|   -4.844984|   -5.109160|   -5.508537|   -5.508294|   -5.056408|  -10.116737|    3.834729|
|           6|  6.7481e+00|  1.9670e-17|  1.2412e-03|  5.0000e-04|  5.0000e-04|  5.0000e-04|   -4.844973|   -5.109159|   -5.508532|   -5.508288|   -5.056397|  -10.116846|    3.834729|
|           7|  6.7195e+00|  1.9670e-17|  1.2412e-03|  5.0000e-04|  5.0000e-04|  5.0000e-04|   -4.844963|   -5.109157|   -5.508526|   -5.508283|   -5.056386|  -10.116955|    3.834728|
|           8|  6.7067e+00|  1.9670e-17|  1.2412e-03|  5.0000e-04|  5.0000e-04|  5.0000e-04|   -4.844952|   -5.109156|   -5.508520|   -5.508277|   -5.056375|  -10.117063|    3.834728|
|           9|  6.7005e+00|  1.9670e-17|  1.2412e-03|  5.0000e-04|  5.0000e-04|  5.0000e-04|   -4.844942|   -5.109154|   -5.508515|   -5.508271|   -5.056364|  -10.117171|    3.834727|
|          10|  6.6947e+00|  1.9670e-17|  1.2412e-03|  5.0000e-04|  5.0000e-04|  5.0000e-04|   -4.844931|   -5.109153|   -5.508509|   -5.508266|   -5.056353|  -10.117277|    3.834727|
|          11|  6.6686e+00|  1.9670e-17|  1.2412e-03|  5.0000e-04|  5.0000e-04|  5.0000e-04|   -4.844920|   -5.109151|   -5.508504|   -5.508260|   -5.056341|  -10.117383|    3.834726|
|          12|  6.6523e+00|  1.9670e-17|  1.2412e-03|  5.0000e-04|  5.0000e-04|  5.0000e-04|   -4.844910|   -5.109150|   -5.508498|   -5.508255|   -5.056330|  -10.117491|    3.834726|
|          13|  6.6270e+00|  1.9670e-17|  1.2412e-03|  5.0000e-04|  5.0000e-04|  5.0000e-04|   -4.844899|   -5.109148|   -5.508493|   -5.508249|   -5.056319|  -10.117598|    3.834725|
|          14|  6.5965e+00|  1.9670e-17|  1.2412e-03|  5.0000e-04|  5.0000e-04|  5.0000e-04|   -4.844889|   -5.109147|   -5.508487|   -5.508244|   -5.056308|  -10.117706|    3.834725|
|          15|  6.5778e+00|  1.9670e-17|  1.2412e-03|  5.0000e-04|  5.0000e-04|  5.0000e-04|   -4.844878|   -5.109145|   -5.508481|   -5.508238|   -5.056297|  -10.117813|    3.834724|
|          16|  6.5623e+00|  1.9670e-17|  1.2412e-03|  5.0000e-04|  5.0000e-04|  5.0000e-04|   -4.844868|   -5.109144|   -5.508476|   -5.508232|   -5.056286|  -10.117918|    3.834724|
|          17|  6.5425e+00|  1.9670e-17|  1.2412e-03|  5.0000e-04|  5.0000e-04|  5.0000e-04|   -4.844857|   -5.109142|   -5.508470|   -5.508227|   -5.056275|  -10.118024|    3.834723|
|          18|  6.5292e+00|  1.9670e-17|  1.2412e-03|  5.0000e-04|  5.0000e-04|  5.0000e-04|   -4.844846|   -5.109141|   -5.508465|   -5.508221|   -5.056264|  -10.118131|    3.834723|
|          19|  6.5217e+00|  1.9670e-17|  1.2412e-03|  5.0000e-04|  5.0000e-04|  5.0000e-04|   -4.844836|   -5.109140|   -5.508459|   -5.508216|   -5.056253|  -10.118238|    3.834722|
|          20|  6.5090e+00|  1.9670e-17|  1.2412e-03|  5.0000e-04|  5.0000e-04|  5.0000e-04|   -4.844825|   -5.109138|   -5.508454|   -5.508210|   -5.056242|  -10.118343|    3.834722|
|          21|  6.4974e+00|  1.9670e-17|  1.2412e-03|  5.0000e-04|  5.0000e-04|  5.0000e-04|   -4.844815|   -5.109137|   -5.508448|   -5.508205|   -5.056231|  -10.118449|    3.834721|
|          22|  6.4855e+00|  1.9670e-17|  1.2412e-03|  5.0000e-04|  5.0000e-04|  5.0000e-04|   -4.844804|   -5.109135|   -5.508443|   -5.508199|   -5.056220|  -10.118554|    3.834721|
|          23|  6.4741e+00|  1.9670e-17|  1.2412e-03|  5.0000e-04|  5.0000e-04|  5.0000e-04|   -4.844794|   -5.109134|   -5.508437|   -5.508194|   -5.056209|  -10.148150|    3.834720|
|          24|  6.4706e+00|  1.9670e-17|  1.2412e-03|  5.0000e-04|  5.0000e-04|  5.0000e-04|   -4.844783|   -5.109132|   -5.508432|   -5.508188|   -5.056198|  -10.138380|    3.834719|
|          25|  6.4598e+00|  1.9670e-17|  1.2412e-03|  5.0000e-04|  5.0000e-04|  5.0000e-04|   -4.844773|   -5.109131|   -5.508426|   -5.508183|   -5.056187|  -10.133616|    3.834719|
|          26|  6.4502e+00|  1.9670e-17|  1.2412e-03|  5.0000e-04|  5.0000e-04|  5.0000e-04|   -4.844762|   -5.109129|   -5.508420|   -5.508177|   -5.056176|  -10.133416|    3.834718|
|          27|  6.4461e+00|  1.9670e-17|  1.2412e-03|  5.0000e-04|  5.0000e-04|  5.0000e-04|   -4.844752|   -5.109128|   -5.508415|   -5.508172|   -5.056165|  -10.133566|    3.834718|
|          28|  6.4543e+00|  1.9670e-17|  1.2412e-03|  5.0000e-04|  5.0000e-04|  5.0000e-04|   -4.844741|   -5.109126|   -5.508409|   -5.508166|   -5.056154|  -10.133716|    3.834717|
|          29|  6.4663e+00|  1.9670e-17|  1.2412e-03|  5.0000e-04|  5.0000e-04|  5.0000e-04|   -4.844731|   -5.109124|   -5.508404|   -5.508160|   -5.056143|  -10.133866|    3.834717|
|          30|  6.4728e+00|  1.9670e-17|  1.2412e-03|  5.0000e-04|  5.0000e-04|  5.0000e-04|   -4.844720|   -5.109123|   -5.508398|   -5.508155|   -5.056132|  -10.134015|    3.834716|
|          31|  6.4714e+00|  1.9670e-17|  1.2412e-03|  5.0000e-04|  5.0000e-04|  5.0000e-04|   -4.844710|   -5.109121|   -5.508393|   -5.508149|   -5.056121|  -10.134165|    3.834715|
|          32|  6.4684e+00|  1.9670e-17|  1.2412e-03|  5.0000e-04|  5.0000e-04|  5.0000e-04|   -4.844699|   -5.109120|   -5.508387|   -5.508144|   -5.056110|  -10.134314|    3.834715|
|          33|  6.4652e+00|  1.9670e-17|  1.2412e-03|  5.0000e-04|  5.0000e-04|  5.0000e-04|   -4.844689|   -5.109118|   -5.508382|   -5.508138|   -5.056099|  -10.134462|    3.834714|
|          34|  6.4608e+00|  1.9670e-17|  1.2412e-03|  5.0000e-04|  5.0000e-04|  5.0000e-04|   -4.844678|   -5.109117|   -5.508376|   -5.508133|   -5.056088|  -10.134610|    3.834714|
|          35|  6.4586e+00|  1.9670e-17|  1.2412e-03|  5.0000e-04|  5.0000e-04|  5.0000e-04|   -4.844668|   -5.109115|   -5.508371|   -5.508127|   -5.056077|  -10.134758|    3.834713|
|          36|  6.4532e+00|  1.9670e-17|  1.2412e-03|  5.0000e-04|  5.0000e-04|  5.0000e-04|   -4.844657|   -5.109114|   -5.508365|   -5.508122|   -5.056066|  -10.134905|    3.834712|
|          37|  6.4533e+00|  1.9670e-17|  1.2412e-03|  5.0000e-04|  5.0000e-04|  5.0000e-04|   -4.844647|   -5.109112|   -5.508360|   -5.508116|   -5.056055|  -10.135052|    3.834712|
|          38|  6.4487e+00|  1.9670e-17|  1.2412e-03|  5.0000e-04|  5.0000e-04|  5.0000e-04|   -4.844636|   -5.109111|   -5.508354|   -5.508111|   -5.056044|  -10.135199|    3.834711|
|          39|  6.4461e+00|  1.9670e-17|  1.2412e-03|  5.0000e-04|  5.0000e-04|  5.0000e-04|   -4.844626|   -5.109109|   -5.508349|   -5.508105|   -5.056033|  -10.135345|    3.834710|
|          40|  6.4417e+00|  1.9670e-17|  1.2412e-03|  5.0000e-04|  5.0000e-04|  5.0000e-04|   -4.844616|   -5.109108|   -5.508343|   -5.508100|   -5.056022|  -10.135491|    3.834710|
|          41|  6.4362e+00|  1.9670e-17|  1.2412e-03|  5.0000e-04|  5.0000e-04|  5.0000e-04|   -4.844605|   -5.109106|   -5.508338|   -5.508094|   -5.056011|  -10.135636|    3.834709|
|          42|  6.4319e+00|  1.9670e-17|  1.2412e-03|  5.0000e-04|  5.0000e-04|  5.0000e-04|   -4.844595|   -5.109104|   -5.508332|   -5.508089|   -5.056000|  -10.135781|    3.834709|
|          43|  6.4272e+00|  1.9670e-17|  1.2412e-03|  5.0000e-04|  5.0000e-04|  5.0000e-04|   -4.844584|   -5.109103|   -5.508327|   -5.508083|   -5.055990|  -10.135926|    3.834708|
|          44|  6.4214e+00|  1.9670e-17|  1.2412e-03|  5.0000e-04|  5.0000e-04|  5.0000e-04|   -4.844574|   -5.109101|   -5.508321|   -5.508078|   -5.055979|  -10.136070|    3.834707|
|          45|  6.4133e+00|  1.9670e-17|  1.2412e-03|  5.0000e-04|  5.0000e-04|  5.0000e-04|   -4.844563|   -5.109100|   -5.508316|   -5.508072|   -5.055968|  -10.136214|    3.834707|
|          46|  6.4112e+00|  1.9670e-17|  1.2412e-03|  5.0000e-04|  5.0000e-04|  5.0000e-04|   -4.844553|   -5.109098|   -5.508310|   -5.508067|   -5.055957|  -10.136357|    3.834706|
|          47|  6.4126e+00|  1.9670e-17|  1.2412e-03|  5.0000e-04|  5.0000e-04|  5.0000e-04|   -4.844543|   -5.109097|   -5.508305|   -5.508061|   -5.055946|  -10.136501|    3.834705|
|          48|  6.4132e+00|  1.9670e-17|  1.2412e-03|  5.0000e-04|  5.0000e-04|  5.0000e-04|   -4.844532|   -5.109095|   -5.508299|   -5.508056|   -5.055935|  -10.136643|    3.834704|
|          49|  6.4105e+00|  1.9670e-17|  1.2412e-03|  5.0000e-04|  5.0000e-04|  5.0000e-04|   -4.844522|   -5.109093|   -5.508294|   -5.508050|   -5.055924|  -10.136786|    3.834704|
|          50|  6.4094e+00|  1.9670e-17|  1.2412e-03|  5.0000e-04|  5.0000e-04|  5.0000e-04|   -4.844511|   -5.109092|   -5.508288|   -5.508045|   -5.055913|  -10.136928|    3.834703|
|          51|  6.4059e+00|  1.9670e-17|  1.2412e-03|  5.0000e-04|  5.0000e-04|  5.0000e-04|   -4.844501|   -5.109090|   -5.508283|   -5.508039|   -5.055902|  -10.137068|    3.834702|
|          52|  6.4037e+00|  1.9670e-17|  1.2412e-03|  5.0000e-04|  5.0000e-04|  5.0000e-04|   -4.844491|   -5.109089|   -5.508277|   -5.508034|   -5.055892|  -10.137201|    3.834702|
|          53|  6.4000e+00|  1.9670e-17|  1.2412e-03|  5.0000e-04|  5.0000e-04|  5.0000e-04|   -4.844480|   -5.109087|   -5.508272|   -5.508028|   -5.055881|  -10.137348|    3.834701|
|          54|  6.3981e+00|  1.9670e-17|  1.2412e-03|  5.0000e-04|  5.0000e-04|  5.0000e-04|   -4.844470|   -5.109086|   -5.508266|   -5.508023|   -5.055870|  -10.137489|    3.834700|
|          55|  6.3968e+00|  1.9670e-17|  1.2412e-03|  5.0000e-04|  5.0000e-04|  5.0000e-04|   -4.844459|   -5.109084|   -5.508261|   -5.508018|   -5.055859|  -10.137629|    3.834699|
|          56|  6.3923e+00|  1.9670e-17|  1.2412e-03|  5.0000e-04|  5.0000e-04|  5.0000e-04|   -4.844449|   -5.109082|   -5.508255|   -5.508012|   -5.055848|  -10.137769|    3.834699|
|          57|  6.3876e+00|  1.9670e-17|  1.2412e-03|  5.0000e-04|  5.0000e-04|  5.0000e-04|   -4.844439|   -5.109081|   -5.508250|   -5.508007|   -5.055837|  -10.137908|    3.834698|
|          58|  6.3840e+00|  1.9670e-17|  1.2412e-03|  5.0000e-04|  5.0000e-04|  5.0000e-04|   -4.844428|   -5.109079|   -5.508244|   -5.508001|   -5.055826|   -9.916340|    3.834697|
|          59|  6.3804e+00|  1.9670e-17|  1.2412e-03|  5.0000e-04|  5.0000e-04|  5.0000e-04|   -4.844418|   -5.109077|   -5.508239|   -5.507996|   -5.055816|   -9.965688|    3.834696|
|          60|  6.3778e+00|  1.9670e-17|  1.2412e-03|  5.0000e-04|  5.0000e-04|  5.0000e-04|   -4.844408|   -5.109076|   -5.508233|   -5.507990|   -5.055805|  -10.000757|    3.834696|
|          61|  6.3750e+00|  1.9670e-17|  1.2412e-03|  5.0000e-04|  5.0000e-04|  5.0000e-04|   -4.844397|   -5.109074|   -5.508228|   -5.507985|   -5.055794|  -10.035227|    3.834695|
|          62|  6.3703e+00|  1.9670e-17|  1.2412e-03|  5.0000e-04|  5.0000e-04|  5.0000e-04|   -4.844387|   -5.109073|   -5.508222|   -5.507979|   -5.055783|  -10.042137|    3.834694|
|          63|  6.3699e+00|  1.9670e-17|  1.2412e-03|  5.0000e-04|  5.0000e-04|  5.0000e-04|   -4.844377|   -5.109071|   -5.508217|   -5.507974|   -5.055772|  -10.027618|    3.834693|
|          64|  6.3646e+00|  1.9670e-17|  1.2412e-03|  5.0000e-04|  5.0000e-04|  5.0000e-04|   -4.844366|   -5.109069|   -5.508211|   -5.507968|   -5.055761|  -10.026813|    3.834693|
|          65|  6.3617e+00|  1.9670e-17|  1.2412e-03|  5.0000e-04|  5.0000e-04|  5.0000e-04|   -4.844356|   -5.109068|   -5.508206|   -5.507963|   -5.055751|  -10.017796|    3.834692|
|          66|  6.3601e+00|  1.9670e-17|  1.2412e-03|  5.0000e-04|  5.0000e-04|  5.0000e-04|   -4.844346|   -5.109066|   -5.508201|   -5.507957|   -5.055740|  -10.016481|    3.834691|
|          67|  6.3567e+00|  1.9670e-17|  1.2412e-03|  5.0000e-04|  5.0000e-04|  5.0000e-04|   -4.844335|   -5.109064|   -5.508195|   -5.507952|   -5.055729|  -10.015094|    3.834690|
|          68|  6.3549e+00|  1.9670e-17|  1.2412e-03|  5.0000e-04|  5.0000e-04|  5.0000e-04|   -4.844325|   -5.109063|   -5.508190|   -5.507947|   -5.055718|  -10.016278|    3.834689|
|          69|  6.3523e+00|  1.9670e-17|  1.2412e-03|  5.0000e-04|  5.0000e-04|  5.0000e-04|   -4.844315|   -5.109061|   -5.508184|   -5.507941|   -5.055707|  -10.018930|    3.834689|
|          70|  6.3491e+00|  1.9670e-17|  1.2412e-03|  5.0000e-04|  5.0000e-04|  5.0000e-04|   -4.844304|   -5.109060|   -5.508179|   -5.507936|   -5.055697|  -10.023287|    3.834688|
|          71|  6.3460e+00|  1.9670e-17|  1.2412e-03|  5.0000e-04|  5.0000e-04|  5.0000e-04|   -4.844294|   -5.109058|   -5.508173|   -5.507930|   -5.055686|  -10.029260|    3.834687|
|          72|  6.3430e+00|  1.9670e-17|  1.2412e-03|  5.0000e-04|  5.0000e-04|  5.0000e-04|   -4.844284|   -5.109056|   -5.508168|   -5.507925|   -5.055675|  -10.036874|    3.834686|
|          73|  6.3394e+00|  1.9670e-17|  1.2412e-03|  5.0000e-04|  5.0000e-04|  5.0000e-04|   -4.844273|   -5.109055|   -5.508162|   -5.507919|   -5.055664|  -10.046111|    3.834685|
|          74|  6.3360e+00|  1.9670e-17|  1.2412e-03|  5.0000e-04|  5.0000e-04|  5.0000e-04|   -4.844263|   -5.109053|   -5.508157|   -5.507914|   -5.055654|  -10.056887|    3.834684|
|          75|  6.3330e+00|  1.9670e-17|  1.2412e-03|  5.0000e-04|  5.0000e-04|  5.0000e-04|   -4.844253|   -5.109051|   -5.508152|   -5.507908|   -5.055643|  -10.069043|    3.834684|
|          76|  6.3288e+00|  1.9670e-17|  1.2412e-03|  5.0000e-04|  5.0000e-04|  5.0000e-04|   -4.844243|   -5.109050|   -5.508146|   -5.507903|   -5.055632|  -10.082298|    3.834683|
|          77|  6.3260e+00|  1.9670e-17|  1.2412e-03|  5.0000e-04|  5.0000e-04|  5.0000e-04|   -4.844232|   -5.109048|   -5.508141|   -5.507898|   -5.055621|  -10.096157|    3.834682|
|          78|  6.3230e+00|  1.9670e-17|  1.2412e-03|  5.0000e-04|  5.0000e-04|  5.0000e-04|   -4.844222|   -5.109046|   -5.508135|   -5.507892|   -5.055611|  -10.110058|    3.834681|
|          79|  6.3192e+00|  1.9670e-17|  1.2412e-03|  5.0000e-04|  5.0000e-04|  5.0000e-04|   -4.844212|   -5.109045|   -5.508130|   -5.507887|   -5.055600|  -10.123184|    3.834680|
|          80|  6.3159e+00|  1.9670e-17|  1.2412e-03|  5.0000e-04|  5.0000e-04|  5.0000e-04|   -4.844202|   -5.109043|   -5.508124|   -5.507881|   -5.055589|  -10.134787|    3.834679|
|          81|  6.3137e+00|  1.9670e-17|  1.2412e-03|  5.0000e-04|  5.0000e-04|  5.0000e-04|   -4.844191|   -5.109041|   -5.508119|   -5.507876|   -5.055578|  -10.144278|    3.834678|
|          82|  6.3116e+00|  1.9670e-17|  1.2412e-03|  5.0000e-04|  5.0000e-04|  5.0000e-04|   -4.844181|   -5.109040|   -5.508114|   -5.507871|   -5.055568|  -10.151375|    3.834678|
|          83|  6.3087e+00|  1.9670e-17|  1.2412e-03|  5.0000e-04|  5.0000e-04|  5.0000e-04|   -4.844171|   -5.109038|   -5.508108|   -5.507865|   -5.055557|  -10.156174|    3.834677|
|          84|  6.3063e+00|  1.9670e-17|  1.2412e-03|  5.0000e-04|  5.0000e-04|  5.0000e-04|   -4.844161|   -5.109036|   -5.508103|   -5.507860|   -5.055546|  -10.159083|    3.834676|
|          85|  6.3049e+00|  1.9670e-17|  1.2412e-03|  5.0000e-04|  5.0000e-04|  5.0000e-04|   -4.844150|   -5.109034|   -5.508097|   -5.507854|   -5.055535|  -10.160656|    3.834675|
|          86|  6.3067e+00|  1.9670e-17|  1.2412e-03|  5.0000e-04|  5.0000e-04|  5.0000e-04|   -4.844140|   -5.109033|   -5.508092|   -5.507849|   -5.055525|  -10.161413|    3.834674|
|          87|  6.3072e+00|  1.9670e-17|  1.2412e-03|  5.0000e-04|  5.0000e-04|  5.0000e-04|   -4.844130|   -5.109031|   -5.508086|   -5.507843|   -5.055514|  -10.161771|    3.834673|
|          88|  6.3063e+00|  1.9670e-17|  1.2412e-03|  5.0000e-04|  5.0000e-04|  5.0000e-04|   -4.844120|   -5.109029|   -5.508081|   -5.507838|   -5.055503|  -10.161979|    3.834672|
|          89|  6.3048e+00|  1.9670e-17|  1.2412e-03|  5.0000e-04|  5.0000e-04|  5.0000e-04|   -4.844110|   -5.109028|   -5.508076|   -5.507833|   -5.055493|  -10.162142|    3.834671|
|          90|  6.3025e+00|  1.9670e-17|  1.2412e-03|  5.0000e-04|  5.0000e-04|  5.0000e-04|   -4.844099|   -5.109026|   -5.508070|   -5.507827|   -5.055482|  -10.162285|    3.834670|
|          91|  6.3008e+00|  1.9670e-17|  1.2412e-03|  5.0000e-04|  5.0000e-04|  5.0000e-04|   -4.844089|   -5.109024|   -5.508065|   -5.507822|   -5.055471|  -10.162429|    3.834669|
|          92|  6.2992e+00|  1.9670e-17|  1.2412e-03|  5.0000e-04|  5.0000e-04|  5.0000e-04|   -4.844079|   -5.109022|   -5.508059|   -5.507816|   -5.055461|  -10.162531|    3.834668|
|          93|  6.2980e+00|  1.9670e-17|  1.2412e-03|  5.0000e-04|  5.0000e-04|  5.0000e-04|   -4.844069|   -5.109021|   -5.508054|   -5.507811|   -5.055450|  -10.162732|    3.834667|
|          94|  6.2975e+00|  1.9670e-17|  1.2412e-03|  5.0000e-04|  5.0000e-04|  5.0000e-04|   -4.844059|   -5.109019|   -5.508049|   -5.507806|   -5.055439|  -10.162876|    3.834666|
|          95|  6.2963e+00|  1.9670e-17|  1.2412e-03|  5.0000e-04|  5.0000e-04|  5.0000e-04|   -4.844048|   -5.109017|   -5.508043|   -5.507800|   -5.055429|  -10.163025|    3.834665|
|          96|  6.2952e+00|  1.9670e-17|  1.2412e-03|  5.0000e-04|  5.0000e-04|  5.0000e-04|   -4.844038|   -5.109016|   -5.508038|   -5.507795|   -5.055418|  -10.163173|    3.834665|
|          97|  6.2938e+00|  1.9670e-17|  1.2412e-03|  5.0000e-04|  5.0000e-04|  5.0000e-04|   -4.844028|   -5.109014|   -5.508032|   -5.507789|   -5.055407|  -10.163323|    3.834664|
|          98|  6.2933e+00|  1.9670e-17|  1.2412e-03|  5.0000e-04|  5.0000e-04|  5.0000e-04|   -4.844018|   -5.109012|   -5.508027|   -5.507784|   -5.055397|  -10.163469|    3.834663|
|          99|  6.2919e+00|  1.9670e-17|  1.2412e-03|  5.0000e-04|  5.0000e-04|  5.0000e-04|   -4.844008|   -5.109010|   -5.508022|   -5.507779|   -5.055386|  -10.163615|    3.834662|
|         100|  6.2904e+00|  1.9670e-17|  1.2412e-03|  5.0000e-04|  5.0000e-04|  5.0000e-04|   -4.843997|   -5.109009|   -5.508016|   -5.507773|   -5.055376|  -10.163964|    3.834661|
|         101|  6.2880e+00|  1.9670e-17|  1.2412e-03|  5.0000e-04|  5.0000e-04|  5.0000e-04|   -4.843987|   -5.109007|   -5.508011|   -5.507768|   -5.055365|  -10.164078|    3.834660|
|         102|  6.2866e+00|  1.9670e-17|  1.2412e-03|  5.0000e-04|  5.0000e-04|  5.0000e-04|   -4.843977|   -5.109005|   -5.508005|   -5.507763|   -5.055354|  -10.164226|    3.834659|
|         103|  6.2859e+00|  1.9670e-17|  1.2412e-03|  5.0000e-04|  5.0000e-04|  5.0000e-04|   -4.843967|   -5.109003|   -5.508000|   -5.507757|   -5.055344|  -10.164372|    3.834658|
|         104|  6.2865e+00|  1.9670e-17|  1.2412e-03|  5.0000e-04|  5.0000e-04|  5.0000e-04|   -4.843957|   -5.109002|   -5.507995|   -5.507752|   -5.055333|  -10.164518|    3.834657|
|         105|  6.2859e+00|  1.9670e-17|  1.2412e-03|  5.0000e-04|  5.0000e-04|  5.0000e-04|   -4.843947|   -5.109000|   -5.507989|   -5.507746|   -5.055322|  -10.164655|    3.834656|
|         106|  6.2871e+00|  1.9670e-17|  1.2412e-03|  5.0000e-04|  5.0000e-04|  5.0000e-04|   -4.843937|   -5.108998|   -5.507984|   -5.507741|   -5.055312|  -10.164813|    3.834655|
|         107|  6.2873e+00|  1.9670e-17|  1.2412e-03|  5.0000e-04|  5.0000e-04|  5.0000e-04|   -4.843927|   -5.108996|   -5.507979|   -5.507736|   -5.055301|  -10.165039|    3.834653|
|         108|  6.2862e+00|  1.9670e-17|  1.2412e-03|  5.0000e-04|  5.0000e-04|  5.0000e-04|   -4.843916|   -5.108995|   -5.507973|   -5.507730|   -5.055291|  -10.164431|    3.834652|
|         109|  6.2845e+00|  3.3831e-17|  1.2412e-03|  5.0000e-04|  5.0000e-04|  5.0000e-04|   -4.843906|   -5.108993|   -5.507968|   -5.507725|   -5.055280|  -10.139572|    3.834651|
|         110|  6.2835e+00|  3.0414e-17|  1.2412e-03|  5.0000e-04|  5.0000e-04|  5.0000e-04|   -4.843896|   -5.108991|   -5.507962|   -5.507720|   -5.055269|  -10.165663|    3.834650|
|         111|  6.2833e+00|  3.0414e-17|  1.2412e-03|  5.0000e-04|  5.0000e-04|  5.0000e-04|   -4.843886|   -5.108989|   -5.507957|   -5.507714|   -5.055259|  -10.165795|    3.834649|
|         112|  6.2815e+00|  3.0414e-17|  1.2412e-03|  5.0000e-04|  5.0000e-04|  5.0000e-04|   -4.843876|   -5.108987|   -5.507952|   -5.507709|   -5.055248|  -10.165947|    3.834648|
|         113|  6.2805e+00|  3.0414e-17|  1.2412e-03|  5.0000e-04|  5.0000e-04|  5.0000e-04|   -4.843866|   -5.108986|   -5.507946|   -5.507704|   -5.055238|  -10.166091|    3.834647|
|         114|  6.2786e+00|  3.0414e-17|  1.2412e-03|  5.0000e-04|  5.0000e-04|  5.0000e-04|   -4.843856|   -5.108984|   -5.507941|   -5.507698|   -5.055227|  -10.166071|    3.834646|
|         115|  6.2766e+00|  3.0414e-17|  1.2412e-03|  5.0000e-04|  5.0000e-04|  5.0000e-04|   -4.843846|   -5.108982|   -5.507936|   -5.507693|   -5.055217|  -10.166309|    3.834645|
|         116|  6.2762e+00|  3.0414e-17|  1.2412e-03|  5.0000e-04|  5.0000e-04|  5.0000e-04|   -4.843836|   -5.108980|   -5.507930|   -5.507688|   -5.055206|  -10.166493|    3.834644|
|         117|  6.2756e+00|  3.0414e-17|  1.2412e-03|  5.0000e-04|  5.0000e-04|  5.0000e-04|   -4.843826|   -5.108978|   -5.507925|   -5.507682|   -5.055196|  -10.166623|    3.834643|
|         118|  6.2744e+00|  3.0414e-17|  1.2412e-03|  5.0000e-04|  5.0000e-04|  5.0000e-04|   -4.843815|   -5.108977|   -5.507920|   -5.507677|   -5.055185|  -10.166747|    3.834642|
|         119|  6.2742e+00|  3.0414e-17|  1.2412e-03|  5.0000e-04|  5.0000e-04|  5.0000e-04|   -4.843805|   -5.108975|   -5.507914|   -5.507671|   -5.055175|  -10.166851|    3.834641|
|         120|  6.2724e+00|  3.0414e-17|  1.2412e-03|  5.0000e-04|  5.0000e-04|  5.0000e-04|   -4.843795|   -5.108973|   -5.507909|   -5.507666|   -5.055164|  -10.166966|    3.834640|
|         121|  6.2710e+00|  3.0414e-17|  1.2412e-03|  5.0000e-04|  5.0000e-04|  5.0000e-04|   -4.843785|   -5.108971|   -5.507904|   -5.507661|   -5.055153|  -10.167115|    3.834638|
|         122|  6.2697e+00|  3.0414e-17|  1.2412e-03|  5.0000e-04|  5.0000e-04|  5.0000e-04|   -4.843775|   -5.108969|   -5.507898|   -5.507655|   -5.055143|  -10.166597|    3.834637|
|         123|  6.2681e+00|  3.0414e-17|  1.2412e-03|  5.0000e-04|  5.0000e-04|  5.0000e-04|   -4.843765|   -5.108968|   -5.507893|   -5.507650|   -5.055132|  -10.166900|    3.834636|
|         124|  6.2665e+00|  3.0414e-17|  1.2412e-03|  5.0000e-04|  5.0000e-04|  5.0000e-04|   -4.843755|   -5.108966|   -5.507888|   -5.507645|   -5.055122|  -10.167673|    3.834635|
|         125|  6.2659e+00|  3.0414e-17|  1.2412e-03|  5.0000e-04|  5.0000e-04|  5.0000e-04|   -4.843745|   -5.108964|   -5.507882|   -5.507639|   -5.055111|  -10.167797|    3.834634|
|         126|  6.2647e+00|  3.0414e-17|  1.2412e-03|  5.0000e-04|  5.0000e-04|  5.0000e-04|   -4.843735|   -5.108962|   -5.507877|   -5.507634|   -5.055101|  -10.167922|    3.834633|
|         127|  6.2644e+00|  3.0414e-17|  1.2412e-03|  5.0000e-04|  5.0000e-04|  5.0000e-04|   -4.843725|   -5.108960|   -5.507872|   -5.507629|   -5.055090|  -10.168059|    3.834632|
|         128|  6.2633e+00|  3.0414e-17|  1.2412e-03|  5.0000e-04|  5.0000e-04|  5.0000e-04|   -4.843715|   -5.108959|   -5.507866|   -5.507623|   -5.055080|  -10.168200|    3.834631|
|         129|  6.2625e+00|  3.0414e-17|  1.2412e-03|  5.0000e-04|  5.0000e-04|  5.0000e-04|   -4.843705|   -5.108957|   -5.507861|   -5.507618|   -5.055069|  -10.168336|    3.834629|
|         130|  6.2615e+00|  3.0414e-17|  1.2412e-03|  5.0000e-04|  5.0000e-04|  5.0000e-04|   -4.843695|   -5.108955|   -5.507856|   -5.507613|   -5.055059|  -10.168470|    3.834628|
|         131|  6.2599e+00|  3.0414e-17|  1.2412e-03|  5.0000e-04|  5.0000e-04|  5.0000e-04|   -4.843685|   -5.108953|   -5.507850|   -5.507608|   -5.055049|  -10.168604|    3.834627|
|         132|  6.2585e+00|  3.0414e-17|  1.2412e-03|  5.0000e-04|  5.0000e-04|  5.0000e-04|   -4.843675|   -5.108951|   -5.507845|   -5.507602|   -5.055038|  -10.168738|    3.834626|
|         133|  6.2579e+00|  3.0414e-17|  1.2412e-03|  5.0000e-04|  5.0000e-04|  5.0000e-04|   -4.843665|   -5.108949|   -5.507840|   -5.507597|   -5.055028|  -10.168872|    3.834625|
|         134|  6.2565e+00|  3.0414e-17|  1.2412e-03|  5.0000e-04|  5.0000e-04|  5.0000e-04|   -4.843655|   -5.108947|   -5.507834|   -5.507592|   -5.055017|  -10.169006|    3.834624|
|         135|  6.2554e+00|  3.0414e-17|  1.2412e-03|  5.0000e-04|  5.0000e-04|  5.0000e-04|   -4.843645|   -5.108946|   -5.507829|   -5.507586|   -5.055007|  -10.169139|    3.834622|
|         136|  6.2544e+00|  3.0414e-17|  1.2412e-03|  5.0000e-04|  5.0000e-04|  5.0000e-04|   -4.843635|   -5.108944|   -5.507824|   -5.507581|   -5.054996|  -10.169272|    3.834621|
|         137|  6.2542e+00|  3.0414e-17|  1.2412e-03|  5.0000e-04|  5.0000e-04|  5.0000e-04|   -4.843625|   -5.108942|   -5.507818|   -5.507576|   -5.054986|  -10.169404|    3.834620|
|         138|  6.2534e+00|  3.0414e-17|  1.2412e-03|  5.0000e-04|  5.0000e-04|  5.0000e-04|   -4.843615|   -5.108940|   -5.507813|   -5.507570|   -5.054975|  -10.169535|    3.834619|
|         139|  6.2517e+00|  3.0414e-17|  1.2412e-03|  5.0000e-04|  5.0000e-04|  5.0000e-04|   -4.843605|   -5.108938|   -5.507808|   -5.507565|   -5.054965|  -10.169667|    3.834618|
|         140|  6.2507e+00|  3.0414e-17|  1.2412e-03|  5.0000e-04|  5.0000e-04|  5.0000e-04|   -4.843595|   -5.108936|   -5.507802|   -5.507560|   -5.054954|  -10.169798|    3.834616|
|         141|  6.2501e+00|  3.0414e-17|  1.2412e-03|  5.0000e-04|  5.0000e-04|  5.0000e-04|   -4.843585|   -5.108934|   -5.507797|   -5.507554|   -5.054944|  -10.169929|    3.834615|
|         142|  6.2491e+00|  3.0414e-17|  1.2412e-03|  5.0000e-04|  5.0000e-04|  5.0000e-04|   -4.843575|   -5.108933|   -5.507792|   -5.507549|   -5.054934|  -10.170060|    3.834614|
|         143|  6.2479e+00|  3.0414e-17|  1.2412e-03|  5.0000e-04|  5.0000e-04|  5.0000e-04|   -4.843565|   -5.108931|   -5.507786|   -5.507544|   -5.054923|  -10.170192|    3.834613|
|         144|  6.2486e+00|  3.0414e-17|  1.2412e-03|  5.0000e-04|  5.0000e-04|  5.0000e-04|   -4.843555|   -5.108929|   -5.507781|   -5.507539|   -5.054913|  -10.170320|    3.834611|
|         145|  6.2495e+00|  3.0414e-17|  1.2412e-03|  5.0000e-04|  5.0000e-04|  5.0000e-04|   -4.843545|   -5.108927|   -5.507776|   -5.507533|   -5.054902|  -10.170450|    3.834610|
|         146|  6.2495e+00|  3.0414e-17|  1.2412e-03|  5.0000e-04|  5.0000e-04|  5.0000e-04|   -4.843535|   -5.108925|   -5.507771|   -5.507528|   -5.054892|  -10.170579|    3.834609|
|         147|  6.2493e+00|  3.0414e-17|  1.2412e-03|  5.0000e-04|  5.0000e-04|  5.0000e-04|   -4.843525|   -5.108923|   -5.507765|   -5.507523|   -5.054882|  -10.170701|    3.834608|
|         148|  6.2487e+00|  3.0414e-17|  1.2412e-03|  5.0000e-04|  5.0000e-04|  5.0000e-04|   -4.843515|   -5.108921|   -5.507760|   -5.507517|   -5.054871|  -10.170841|    3.834606|
|         149|  6.2480e+00|  3.0414e-17|  1.2412e-03|  5.0000e-04|  5.0000e-04|  5.0000e-04|   -4.843506|   -5.108919|   -5.507755|   -5.507512|   -5.054861|  -10.170970|    3.834605|
|         150|  6.2477e+00|  3.0414e-17|  1.2412e-03|  5.0000e-04|  5.0000e-04|  5.0000e-04|   -4.843496|   -5.108917|   -5.507749|   -5.507507|   -5.054851|  -10.171098|    3.834604|
+-----------------------------------------------------------------------+
|        File Writing Summary       |              Filename             |
+-----------------------------------------------------------------------+
|SU2 binary restart                 |restart_flow.dat                   |
|Paraview                           |flow.vtu                           |
|Paraview surface                   |surface_flow.vtu                   |
+-----------------------------------------------------------------------+
+-------------------------------------------------------------------------------------------------------------------------------------------------------------------------------------+
|  Inner_Iter|   Time(sec)|      Min DT|      Max DT|     Min CFL|     Max CFL|     Avg CFL|    rms[Rho]|   rms[RhoU]|   rms[RhoV]|   rms[RhoW]|   rms[RhoE]|     rms[nu]|          CD|
+-------------------------------------------------------------------------------------------------------------------------------------------------------------------------------------+
|         151|  6.3370e+00|  3.0414e-17|  1.2412e-03|  5.0000e-04|  5.0000e-04|  5.0000e-04|   -4.843486|   -5.108916|   -5.507744|   -5.507502|   -5.054840|  -10.171225|    3.834603|
|         152|  6.3402e+00|  3.0414e-17|  1.2412e-03|  5.0000e-04|  5.0000e-04|  5.0000e-04|   -4.843476|   -5.108914|   -5.507739|   -5.507496|   -5.054830|  -10.171272|    3.834601|
|         153|  6.3414e+00|  3.0414e-17|  1.2412e-03|  5.0000e-04|  5.0000e-04|  5.0000e-04|   -4.843466|   -5.108912|   -5.507734|   -5.507491|   -5.054819|  -10.171478|    3.834600|
|         154|  6.3412e+00|  3.0414e-17|  1.2412e-03|  5.0000e-04|  5.0000e-04|  5.0000e-04|   -4.843456|   -5.108910|   -5.507728|   -5.507486|   -5.054809|  -10.171424|    3.834599|
|         155|  6.3417e+00|  3.0414e-17|  1.2412e-03|  5.0000e-04|  5.0000e-04|  5.0000e-04|   -4.843446|   -5.108908|   -5.507723|   -5.507481|   -5.054799|  -10.171772|    3.834597|
|         156|  6.3411e+00|  3.0414e-17|  1.2412e-03|  5.0000e-04|  5.0000e-04|  5.0000e-04|   -4.843436|   -5.108906|   -5.507718|   -5.507475|   -5.054788|  -10.171890|    3.834596|
|         157|  6.3409e+00|  3.0414e-17|  1.2412e-03|  5.0000e-04|  5.0000e-04|  5.0000e-04|   -4.843426|   -5.108904|   -5.507712|   -5.507470|   -5.054778|  -10.171989|    3.834595|
|         158|  6.3399e+00|  3.0414e-17|  1.2412e-03|  5.0000e-04|  5.0000e-04|  5.0000e-04|   -4.843416|   -5.108902|   -5.507707|   -5.507465|   -5.054768|  -10.172114|    3.834593|
|         159|  6.3392e+00|  3.0414e-17|  1.2412e-03|  5.0000e-04|  5.0000e-04|  5.0000e-04|   -4.843407|   -5.108900|   -5.507702|   -5.507459|   -5.054757|  -10.172238|    3.834592|
|         160|  6.3391e+00|  3.0414e-17|  1.2412e-03|  5.0000e-04|  5.0000e-04|  5.0000e-04|   -4.843397|   -5.108898|   -5.507697|   -5.507454|   -5.054747|  -10.172363|    3.834591|
|         161|  6.3405e+00|  3.0414e-17|  1.2412e-03|  5.0000e-04|  5.0000e-04|  5.0000e-04|   -4.843387|   -5.108896|   -5.507691|   -5.507449|   -5.054737|  -10.172494|    3.834589|
|         162|  6.3428e+00|  3.0414e-17|  1.2412e-03|  5.0000e-04|  5.0000e-04|  5.0000e-04|   -4.843377|   -5.108894|   -5.507686|   -5.507444|   -5.054726|  -10.172649|    3.834588|
|         163|  6.3443e+00|  3.0414e-17|  1.2412e-03|  5.0000e-04|  5.0000e-04|  5.0000e-04|   -4.843367|   -5.108892|   -5.507681|   -5.507438|   -5.054716|  -10.172736|    3.834587|
|         164|  6.3449e+00|  3.0414e-17|  1.2412e-03|  5.0000e-04|  5.0000e-04|  5.0000e-04|   -4.843357|   -5.108891|   -5.507676|   -5.507433|   -5.054706|  -10.172856|    3.834585|
|         165|  6.3453e+00|  3.0414e-17|  1.2412e-03|  5.0000e-04|  5.0000e-04|  5.0000e-04|   -4.843347|   -5.108889|   -5.507670|   -5.507428|   -5.054696|  -10.172965|    3.834584|
|         166|  6.3444e+00|  3.0414e-17|  1.2412e-03|  5.0000e-04|  5.0000e-04|  5.0000e-04|   -4.843338|   -5.108887|   -5.507665|   -5.507423|   -5.054685|  -10.173086|    3.834583|
|         167|  6.3441e+00|  3.0414e-17|  1.2412e-03|  5.0000e-04|  5.0000e-04|  5.0000e-04|   -4.843328|   -5.108885|   -5.507660|   -5.507417|   -5.054675|  -10.173212|    3.834581|
|         168|  6.3432e+00|  3.0414e-17|  1.2412e-03|  5.0000e-04|  5.0000e-04|  5.0000e-04|   -4.843318|   -5.108883|   -5.507655|   -5.507412|   -5.054665|  -10.173335|    3.834580|
|         169|  6.3427e+00|  3.0414e-17|  1.2412e-03|  5.0000e-04|  5.0000e-04|  5.0000e-04|   -4.843308|   -5.108881|   -5.507649|   -5.507407|   -5.054654|  -10.173457|    3.834578|
|         170|  6.3432e+00|  3.0414e-17|  1.2412e-03|  5.0000e-04|  5.0000e-04|  5.0000e-04|   -4.843298|   -5.108879|   -5.507644|   -5.507402|   -5.054644|  -10.173579|    3.834577|
|         171|  6.3431e+00|  3.0414e-17|  1.2412e-03|  5.0000e-04|  5.0000e-04|  5.0000e-04|   -4.843288|   -5.108877|   -5.507639|   -5.507396|   -5.054634|  -10.173693|    3.834576|
|         172|  6.3427e+00|  3.0414e-17|  1.2412e-03|  5.0000e-04|  5.0000e-04|  5.0000e-04|   -4.843279|   -5.108875|   -5.507634|   -5.507391|   -5.054624|  -10.173825|    3.834574|
|         173|  6.3423e+00|  3.0414e-17|  1.2412e-03|  5.0000e-04|  5.0000e-04|  5.0000e-04|   -4.843269|   -5.108873|   -5.507628|   -5.507386|   -5.054613|  -10.174066|    3.834573|
|         174|  6.3414e+00|  3.0414e-17|  1.2412e-03|  5.0000e-04|  5.0000e-04|  5.0000e-04|   -4.843259|   -5.108871|   -5.507623|   -5.507381|   -5.054603|  -10.174158|    3.834571|
|         175|  6.3411e+00|  3.0414e-17|  1.2412e-03|  5.0000e-04|  5.0000e-04|  5.0000e-04|   -4.843249|   -5.108869|   -5.507618|   -5.507376|   -5.054593|  -10.174266|    3.834570|
|         176|  6.3402e+00|  3.0414e-17|  1.2412e-03|  5.0000e-04|  5.0000e-04|  5.0000e-04|   -4.843239|   -5.108867|   -5.507613|   -5.507370|   -5.054583|  -10.174282|    3.834569|
|         177|  6.3393e+00|  3.0414e-17|  1.2412e-03|  5.0000e-04|  5.0000e-04|  5.0000e-04|   -4.843230|   -5.108865|   -5.507607|   -5.507365|   -5.054572|  -10.171198|    3.834567|
|         178|  6.3390e+00|  3.0414e-17|  1.2412e-03|  5.0000e-04|  5.0000e-04|  5.0000e-04|   -4.843220|   -5.108863|   -5.507602|   -5.507360|   -5.054562|  -10.170090|    3.834566|
|         179|  6.3382e+00|  3.0414e-17|  1.2412e-03|  5.0000e-04|  5.0000e-04|  5.0000e-04|   -4.843210|   -5.108861|   -5.507597|   -5.507355|   -5.054552|  -10.175047|    3.834564|
|         180|  6.3371e+00|  3.0414e-17|  1.2412e-03|  5.0000e-04|  5.0000e-04|  5.0000e-04|   -4.843200|   -5.108859|   -5.507592|   -5.507349|   -5.054542|  -10.175164|    3.834563|
|         181|  6.3364e+00|  3.0414e-17|  1.2412e-03|  5.0000e-04|  5.0000e-04|  5.0000e-04|   -4.843191|   -5.108857|   -5.507587|   -5.507344|   -5.054531|  -10.175282|    3.834561|
|         182|  6.3354e+00|  3.0414e-17|  1.2412e-03|  5.0000e-04|  5.0000e-04|  5.0000e-04|   -4.843181|   -5.108855|   -5.507581|   -5.507339|   -5.054521|  -10.175401|    3.834560|
|         183|  6.3347e+00|  3.0414e-17|  1.2412e-03|  5.0000e-04|  5.0000e-04|  5.0000e-04|   -4.843171|   -5.108853|   -5.507576|   -5.507334|   -5.054511|  -10.175518|    3.834559|
|         184|  6.3336e+00|  3.0414e-17|  1.2412e-03|  5.0000e-04|  5.0000e-04|  5.0000e-04|   -4.843161|   -5.108851|   -5.507571|   -5.507329|   -5.054501|  -10.175633|    3.834557|
|         185|  6.3325e+00|  3.0414e-17|  1.2412e-03|  5.0000e-04|  5.0000e-04|  5.0000e-04|   -4.843152|   -5.108849|   -5.507566|   -5.507323|   -5.054491|  -10.175753|    3.834556|
|         186|  6.3317e+00|  3.0414e-17|  1.2412e-03|  5.0000e-04|  5.0000e-04|  5.0000e-04|   -4.843142|   -5.108847|   -5.507561|   -5.507318|   -5.054480|  -10.172865|    3.834554|
|         187|  6.3305e+00|  3.0414e-17|  1.2412e-03|  5.0000e-04|  5.0000e-04|  5.0000e-04|   -4.843132|   -5.108845|   -5.507555|   -5.507313|   -5.054470|  -10.174025|    3.834553|
|         188|  6.3287e+00|  3.0414e-17|  1.2412e-03|  5.0000e-04|  5.0000e-04|  5.0000e-04|   -4.843122|   -5.108843|   -5.507550|   -5.507308|   -5.054460|  -10.176096|    3.834551|
|         189|  6.3276e+00|  3.0414e-17|  1.2412e-03|  5.0000e-04|  5.0000e-04|  5.0000e-04|   -4.843113|   -5.108841|   -5.507545|   -5.507303|   -5.054450|  -10.176218|    3.834550|
|         190|  6.3271e+00|  3.0414e-17|  1.2412e-03|  5.0000e-04|  5.0000e-04|  5.0000e-04|   -4.843103|   -5.108839|   -5.507540|   -5.507297|   -5.054440|  -10.176327|    3.834548|
|         191|  6.3267e+00|  3.0414e-17|  1.2412e-03|  5.0000e-04|  5.0000e-04|  5.0000e-04|   -4.843093|   -5.108837|   -5.507534|   -5.507292|   -5.054430|  -10.176432|    3.834547|
|         192|  6.3255e+00|  3.0414e-17|  1.2412e-03|  5.0000e-04|  5.0000e-04|  5.0000e-04|   -4.843083|   -5.108835|   -5.507529|   -5.507287|   -5.054419|  -10.176545|    3.834545|
|         193|  6.3252e+00|  3.0414e-17|  1.2412e-03|  5.0000e-04|  5.0000e-04|  5.0000e-04|   -4.843074|   -5.108833|   -5.507524|   -5.507282|   -5.054409|  -10.176659|    3.834544|
|         194|  6.3243e+00|  3.0414e-17|  1.2412e-03|  5.0000e-04|  5.0000e-04|  5.0000e-04|   -4.843064|   -5.108831|   -5.507519|   -5.507277|   -5.054399|  -10.176771|    3.834542|
|         195|  6.3236e+00|  3.0414e-17|  1.2412e-03|  5.0000e-04|  5.0000e-04|  5.0000e-04|   -4.843054|   -5.108829|   -5.507514|   -5.507271|   -5.054389|  -10.176884|    3.834540|
|         196|  6.3226e+00|  3.0414e-17|  1.2412e-03|  5.0000e-04|  5.0000e-04|  5.0000e-04|   -4.843045|   -5.108827|   -5.507509|   -5.507266|   -5.054379|  -10.176754|    3.834539|
|         197|  6.3214e+00|  3.0414e-17|  1.2412e-03|  5.0000e-04|  5.0000e-04|  5.0000e-04|   -4.843035|   -5.108825|   -5.507503|   -5.507261|   -5.054369|  -10.177099|    3.834537|
|         198|  6.3205e+00|  3.0414e-17|  1.2412e-03|  5.0000e-04|  5.0000e-04|  5.0000e-04|   -4.843025|   -5.108823|   -5.507498|   -5.507256|   -5.054359|  -10.177148|    3.834536|
|         199|  6.3208e+00|  3.0414e-17|  1.2412e-03|  5.0000e-04|  5.0000e-04|  5.0000e-04|   -4.843016|   -5.108821|   -5.507493|   -5.507251|   -5.054348|  -10.177340|    3.834534|
|         200|  6.3210e+00|  3.0414e-17|  1.2412e-03|  5.0000e-04|  5.0000e-04|  5.0000e-04|   -4.843006|   -5.108818|   -5.507488|   -5.507246|   -5.054338|  -10.177505|    3.834533|
|         201|  6.3206e+00|  3.0414e-17|  1.2412e-03|  5.0000e-04|  5.0000e-04|  5.0000e-04|   -4.842996|   -5.108816|   -5.507483|   -5.507240|   -5.054328|  -10.177603|    3.834531|
|         202|  6.3202e+00|  3.0414e-17|  1.2412e-03|  5.0000e-04|  5.0000e-04|  5.0000e-04|   -4.842986|   -5.108814|   -5.507477|   -5.507235|   -5.054318|  -10.177687|    3.834530|
|         203|  6.3193e+00|  3.0414e-17|  1.2412e-03|  5.0000e-04|  5.0000e-04|  5.0000e-04|   -4.842977|   -5.108812|   -5.507472|   -5.507230|   -5.054308|  -10.176061|    3.834528|
|         204|  6.3183e+00|  3.0414e-17|  1.2412e-03|  5.0000e-04|  5.0000e-04|  5.0000e-04|   -4.842967|   -5.108810|   -5.507467|   -5.507225|   -5.054298|  -10.177546|    3.834526|
|         205|  6.3180e+00|  3.0414e-17|  1.2412e-03|  5.0000e-04|  5.0000e-04|  5.0000e-04|   -4.842958|   -5.108808|   -5.507462|   -5.507220|   -5.054288|  -10.176467|    3.834525|
|         206|  6.3173e+00|  3.0414e-17|  1.2412e-03|  5.0000e-04|  5.0000e-04|  5.0000e-04|   -4.842948|   -5.108806|   -5.507457|   -5.507214|   -5.054278|  -10.176597|    3.834523|
|         207|  6.3164e+00|  3.0414e-17|  1.2412e-03|  5.0000e-04|  5.0000e-04|  5.0000e-04|   -4.842938|   -5.108804|   -5.507452|   -5.507209|   -5.054268|  -10.177743|    3.834522|
|         208|  6.3156e+00|  3.0414e-17|  1.2412e-03|  5.0000e-04|  5.0000e-04|  5.0000e-04|   -4.842929|   -5.108802|   -5.507446|   -5.507204|   -5.054257|  -10.177926|    3.834520|
|         209|  6.3144e+00|  3.0414e-17|  1.2412e-03|  5.0000e-04|  5.0000e-04|  5.0000e-04|   -4.842919|   -5.108800|   -5.507441|   -5.507199|   -5.054247|  -10.177923|    3.834518|
|         210|  6.3139e+00|  3.0414e-17|  1.2412e-03|  5.0000e-04|  5.0000e-04|  5.0000e-04|   -4.842909|   -5.108798|   -5.507436|   -5.507194|   -5.054237|  -10.178174|    3.834517|
|         211|  6.3132e+00|  3.0414e-17|  1.2412e-03|  5.0000e-04|  5.0000e-04|  5.0000e-04|   -4.842900|   -5.108796|   -5.507431|   -5.507189|   -5.054227|  -10.179178|    3.834515|
|         212|  6.3122e+00|  3.0414e-17|  1.2412e-03|  5.0000e-04|  5.0000e-04|  5.0000e-04|   -4.842890|   -5.108794|   -5.507426|   -5.507184|   -5.054217|  -10.178919|    3.834514|
|         213|  6.3117e+00|  3.0414e-17|  1.2412e-03|  5.0000e-04|  5.0000e-04|  5.0000e-04|   -4.842880|   -5.108791|   -5.507421|   -5.507178|   -5.054207|  -10.179765|    3.834512|
|         214|  6.3101e+00|  3.0414e-17|  1.2412e-03|  5.0000e-04|  5.0000e-04|  5.0000e-04|   -4.842871|   -5.108789|   -5.507415|   -5.507173|   -5.054197|  -10.179889|    3.834510|
|         215|  6.3091e+00|  3.0414e-17|  1.2412e-03|  5.0000e-04|  5.0000e-04|  5.0000e-04|   -4.842861|   -5.108787|   -5.507410|   -5.507168|   -5.054187|  -10.178387|    3.834509|
|         216|  6.3083e+00|  3.0414e-17|  1.2412e-03|  5.0000e-04|  5.0000e-04|  5.0000e-04|   -4.842852|   -5.108785|   -5.507405|   -5.507163|   -5.054177|  -10.177243|    3.834507|
|         217|  6.3074e+00|  3.0414e-17|  1.2412e-03|  5.0000e-04|  5.0000e-04|  5.0000e-04|   -4.842842|   -5.108783|   -5.507400|   -5.507158|   -5.054167|  -10.180415|    3.834505|
|         218|  6.3075e+00|  3.0414e-17|  1.2412e-03|  5.0000e-04|  5.0000e-04|  5.0000e-04|   -4.842832|   -5.108781|   -5.507395|   -5.507153|   -5.054157|  -10.180524|    3.834504|
|         219|  6.3077e+00|  3.0414e-17|  1.2412e-03|  5.0000e-04|  5.0000e-04|  5.0000e-04|   -4.842823|   -5.108779|   -5.507390|   -5.507148|   -5.054147|  -10.180633|    3.834502|
|         220|  6.3086e+00|  3.0414e-17|  1.2412e-03|  5.0000e-04|  5.0000e-04|  5.0000e-04|   -4.842813|   -5.108777|   -5.507385|   -5.507142|   -5.054137|  -10.180741|    3.834500|
|         221|  6.3087e+00|  3.0414e-17|  1.2412e-03|  5.0000e-04|  5.0000e-04|  5.0000e-04|   -4.842804|   -5.108775|   -5.507379|   -5.507137|   -5.054127|  -10.179366|    3.834499|
|         222|  6.3081e+00|  3.0414e-17|  1.2412e-03|  5.0000e-04|  5.0000e-04|  5.0000e-04|   -4.842794|   -5.108772|   -5.507374|   -5.507132|   -5.054117|  -10.180380|    3.834497|
|         223|  6.3076e+00|  3.0414e-17|  1.2412e-03|  5.0000e-04|  5.0000e-04|  5.0000e-04|   -4.842785|   -5.108770|   -5.507369|   -5.507127|   -5.054107|  -10.180574|    3.834495|
|         224|  6.3069e+00|  3.0414e-17|  1.2412e-03|  5.0000e-04|  5.0000e-04|  5.0000e-04|   -4.842775|   -5.108768|   -5.507364|   -5.507122|   -5.054097|  -10.180543|    3.834494|
|         225|  6.3063e+00|  3.0414e-17|  1.2412e-03|  5.0000e-04|  5.0000e-04|  5.0000e-04|   -4.842765|   -5.108766|   -5.507359|   -5.507117|   -5.054087|  -10.181154|    3.834492|
|         226|  6.3054e+00|  3.0414e-17|  1.2412e-03|  5.0000e-04|  5.0000e-04|  5.0000e-04|   -4.842756|   -5.108764|   -5.507354|   -5.507112|   -5.054077|  -10.181270|    3.834490|
|         227|  6.3042e+00|  3.0414e-17|  1.2412e-03|  5.0000e-04|  5.0000e-04|  5.0000e-04|   -4.842746|   -5.108762|   -5.507349|   -5.507106|   -5.054067|  -10.181380|    3.834488|
|         228|  6.3033e+00|  3.0414e-17|  1.2412e-03|  5.0000e-04|  5.0000e-04|  5.0000e-04|   -4.842737|   -5.108760|   -5.507343|   -5.507101|   -5.054057|  -10.181468|    3.834487|
|         229|  6.3028e+00|  3.0414e-17|  1.2412e-03|  5.0000e-04|  5.0000e-04|  5.0000e-04|   -4.842727|   -5.108757|   -5.507338|   -5.507096|   -5.054047|  -10.181578|    3.834485|
|         230|  6.3018e+00|  3.0414e-17|  1.2412e-03|  5.0000e-04|  5.0000e-04|  5.0000e-04|   -4.842718|   -5.108755|   -5.507333|   -5.507091|   -5.054037|  -10.181353|    3.834483|
|         231|  6.3013e+00|  4.4007e-17|  1.2412e-03|  5.0000e-04|  5.0000e-04|  5.0000e-04|   -4.842708|   -5.108753|   -5.507328|   -5.507086|   -5.054027|  -10.181144|    3.834482|
|         232|  6.3003e+00|  4.1510e-17|  1.2412e-03|  5.0000e-04|  5.0000e-04|  5.0000e-04|   -4.842699|   -5.108751|   -5.507323|   -5.507081|   -5.054017|  -10.182067|    3.834480|
|         233|  6.2989e+00|  4.1510e-17|  1.2412e-03|  5.0000e-04|  5.0000e-04|  5.0000e-04|   -4.842689|   -5.108749|   -5.507318|   -5.507076|   -5.054007|  -10.182157|    3.834478|
|         234|  6.2979e+00|  4.1510e-17|  1.2412e-03|  5.0000e-04|  5.0000e-04|  5.0000e-04|   -4.842680|   -5.108747|   -5.507313|   -5.507071|   -5.053997|  -10.182293|    3.834476|
|         235|  6.2966e+00|  4.1510e-17|  1.2412e-03|  5.0000e-04|  5.0000e-04|  5.0000e-04|   -4.842670|   -5.108745|   -5.507308|   -5.507066|   -5.053987|  -10.182453|    3.834475|
|         236|  6.2956e+00|  4.1510e-17|  1.2412e-03|  5.0000e-04|  5.0000e-04|  5.0000e-04|   -4.842661|   -5.108742|   -5.507303|   -5.507060|   -5.053977|  -10.182493|    3.834473|
|         237|  6.2950e+00|  4.1510e-17|  1.2412e-03|  5.0000e-04|  5.0000e-04|  5.0000e-04|   -4.842651|   -5.108740|   -5.507297|   -5.507055|   -5.053967|  -10.182597|    3.834471|
|         238|  6.2954e+00|  4.1510e-17|  1.2412e-03|  5.0000e-04|  5.0000e-04|  5.0000e-04|   -4.842642|   -5.108738|   -5.507292|   -5.507050|   -5.053957|  -10.182664|    3.834469|
|         239|  6.2958e+00|  4.1510e-17|  1.2412e-03|  5.0000e-04|  5.0000e-04|  5.0000e-04|   -4.842632|   -5.108736|   -5.507287|   -5.507045|   -5.053948|  -10.185524|    3.834467|
|         240|  6.2953e+00|  4.1510e-17|  1.2412e-03|  5.0000e-04|  5.0000e-04|  5.0000e-04|   -4.842623|   -5.108734|   -5.507282|   -5.507040|   -5.053938|  -10.184147|    3.834466|
|         241|  6.2946e+00|  4.1510e-17|  1.2412e-03|  5.0000e-04|  5.0000e-04|  5.0000e-04|   -4.842613|   -5.108732|   -5.507277|   -5.507035|   -5.053928|  -10.184225|    3.834464|
|         242|  6.2940e+00|  4.1510e-17|  1.2412e-03|  5.0000e-04|  5.0000e-04|  5.0000e-04|   -4.842604|   -5.108729|   -5.507272|   -5.507030|   -5.053918|  -10.183118|    3.834462|
|         243|  6.2933e+00|  4.1510e-17|  1.2412e-03|  5.0000e-04|  5.0000e-04|  5.0000e-04|   -4.842594|   -5.108727|   -5.507267|   -5.507025|   -5.053908|  -10.184347|    3.834460|
|         244|  6.2925e+00|  4.1510e-17|  1.2412e-03|  5.0000e-04|  5.0000e-04|  5.0000e-04|   -4.842585|   -5.108725|   -5.507262|   -5.507020|   -5.053898|  -10.184469|    3.834458|
|         245|  6.2919e+00|  4.1510e-17|  1.2412e-03|  5.0000e-04|  5.0000e-04|  5.0000e-04|   -4.842575|   -5.108723|   -5.507257|   -5.507015|   -5.053888|  -10.184583|    3.834457|
|         246|  6.2911e+00|  4.1510e-17|  1.2412e-03|  5.0000e-04|  5.0000e-04|  5.0000e-04|   -4.842566|   -5.108721|   -5.507252|   -5.507010|   -5.053878|  -10.184587|    3.834455|
|         247|  6.2902e+00|  4.1510e-17|  1.2412e-03|  5.0000e-04|  5.0000e-04|  5.0000e-04|   -4.842556|   -5.108718|   -5.507246|   -5.507004|   -5.053868|  -10.119791|    3.834453|
|         248|  6.2894e+00|  4.1510e-17|  1.2412e-03|  5.0000e-04|  5.0000e-04|  5.0000e-04|   -4.842547|   -5.108716|   -5.507241|   -5.506999|   -5.053859|  -10.160460|    3.834451|
|         249|  6.2889e+00|  4.1510e-17|  1.2412e-03|  5.0000e-04|  5.0000e-04|  5.0000e-04|   -4.842538|   -5.108714|   -5.507236|   -5.506994|   -5.053849|  -10.184699|    3.834449|
|         250|  6.2886e+00|  4.1510e-17|  1.2412e-03|  5.0000e-04|  5.0000e-04|  5.0000e-04|   -4.842528|   -5.108712|   -5.507231|   -5.506989|   -5.053839|  -10.174089|    3.834447|
|         251|  6.2883e+00|  4.1510e-17|  1.2412e-03|  5.0000e-04|  5.0000e-04|  5.0000e-04|   -4.842519|   -5.108710|   -5.507226|   -5.506984|   -5.053829|  -10.182406|    3.834446|
|         252|  6.2881e+00|  4.1510e-17|  1.2412e-03|  5.0000e-04|  5.0000e-04|  5.0000e-04|   -4.842509|   -5.108707|   -5.507221|   -5.506979|   -5.053819|  -10.185159|    3.834444|
|         253|  6.2873e+00|  4.1510e-17|  1.2412e-03|  5.0000e-04|  5.0000e-04|  5.0000e-04|   -4.842500|   -5.108705|   -5.507216|   -5.506974|   -5.053809|  -10.185283|    3.834442|
|         254|  6.2865e+00|  4.1510e-17|  1.2412e-03|  5.0000e-04|  5.0000e-04|  5.0000e-04|   -4.842490|   -5.108703|   -5.507211|   -5.506969|   -5.053799|  -10.185359|    3.834440|
|         255|  6.2859e+00|  4.1510e-17|  1.2412e-03|  5.0000e-04|  5.0000e-04|  5.0000e-04|   -4.842481|   -5.108701|   -5.507206|   -5.506964|   -5.053790|  -10.185493|    3.834438|
|         256|  6.2852e+00|  4.1510e-17|  1.2412e-03|  5.0000e-04|  5.0000e-04|  5.0000e-04|   -4.842472|   -5.108698|   -5.507201|   -5.506959|   -5.053780|  -10.185550|    3.834436|
|         257|  6.2849e+00|  4.1510e-17|  1.2412e-03|  5.0000e-04|  5.0000e-04|  5.0000e-04|   -4.842462|   -5.108696|   -5.507196|   -5.506954|   -5.053770|  -10.185634|    3.834434|
|         258|  6.2858e+00|  4.1510e-17|  1.2412e-03|  5.0000e-04|  5.0000e-04|  5.0000e-04|   -4.842453|   -5.108694|   -5.507191|   -5.506949|   -5.053760|  -10.185747|    3.834432|
|         259|  6.2865e+00|  4.1510e-17|  1.2412e-03|  5.0000e-04|  5.0000e-04|  5.0000e-04|   -4.842443|   -5.108692|   -5.507186|   -5.506944|   -5.053750|  -10.184129|    3.834431|
|         260|  6.2866e+00|  4.1510e-17|  1.2412e-03|  5.0000e-04|  5.0000e-04|  5.0000e-04|   -4.842434|   -5.108689|   -5.507180|   -5.506939|   -5.053740|  -10.185819|    3.834429|
|         261|  6.2867e+00|  4.1510e-17|  1.2412e-03|  5.0000e-04|  5.0000e-04|  5.0000e-04|   -4.842425|   -5.108687|   -5.507175|   -5.506933|   -5.053731|  -10.185941|    3.834427|
|         262|  6.2868e+00|  4.1510e-17|  1.2412e-03|  5.0000e-04|  5.0000e-04|  5.0000e-04|   -4.842415|   -5.108685|   -5.507170|   -5.506928|   -5.053721|  -10.186062|    3.834425|
|         263|  6.2867e+00|  4.1510e-17|  1.2412e-03|  5.0000e-04|  5.0000e-04|  5.0000e-04|   -4.842406|   -5.108683|   -5.507165|   -5.506923|   -5.053711|  -10.186146|    3.834423|
|         264|  6.2865e+00|  4.1510e-17|  1.2412e-03|  5.0000e-04|  5.0000e-04|  5.0000e-04|   -4.842397|   -5.108681|   -5.507160|   -5.506918|   -5.053701|  -10.186190|    3.834421|
|         265|  6.2865e+00|  4.1510e-17|  1.2412e-03|  5.0000e-04|  5.0000e-04|  5.0000e-04|   -4.842387|   -5.108678|   -5.507155|   -5.506913|   -5.053691|  -10.184948|    3.834419|
|         266|  6.2859e+00|  4.1510e-17|  1.2412e-03|  5.0000e-04|  5.0000e-04|  5.0000e-04|   -4.842378|   -5.108676|   -5.507150|   -5.506908|   -5.053682|  -10.185009|    3.834417|
|         267|  6.2853e+00|  4.1510e-17|  1.2412e-03|  5.0000e-04|  5.0000e-04|  5.0000e-04|   -4.842368|   -5.108674|   -5.507145|   -5.506903|   -5.053672|  -10.184767|    3.834415|
|         268|  6.2851e+00|  4.1510e-17|  1.2412e-03|  5.0000e-04|  5.0000e-04|  5.0000e-04|   -4.842359|   -5.108671|   -5.507140|   -5.506898|   -5.053662|  -10.185925|    3.834413|
|         269|  6.2844e+00|  4.1510e-17|  1.2412e-03|  5.0000e-04|  5.0000e-04|  5.0000e-04|   -4.842350|   -5.108669|   -5.507135|   -5.506893|   -5.053652|  -10.145050|    3.834411|
|         270|  6.2838e+00|  4.1510e-17|  1.2412e-03|  5.0000e-04|  5.0000e-04|  5.0000e-04|   -4.842340|   -5.108667|   -5.507130|   -5.506888|   -5.053643|  -10.167997|    3.834409|
|         271|  6.2831e+00|  4.1510e-17|  1.2412e-03|  5.0000e-04|  5.0000e-04|  5.0000e-04|   -4.842331|   -5.108665|   -5.507125|   -5.506883|   -5.053633|  -10.186413|    3.834407|
|         272|  6.2830e+00|  4.1510e-17|  1.2412e-03|  5.0000e-04|  5.0000e-04|  5.0000e-04|   -4.842322|   -5.108662|   -5.507120|   -5.506878|   -5.053623|  -10.186494|    3.834405|
|         273|  6.2822e+00|  4.1510e-17|  1.2412e-03|  5.0000e-04|  5.0000e-04|  5.0000e-04|   -4.842312|   -5.108660|   -5.507115|   -5.506873|   -5.053613|  -10.186663|    3.834403|
|         274|  6.2818e+00|  4.1510e-17|  1.2412e-03|  5.0000e-04|  5.0000e-04|  5.0000e-04|   -4.842303|   -5.108658|   -5.507110|   -5.506868|   -5.053604|  -10.186751|    3.834401|
|         275|  6.2813e+00|  4.1510e-17|  1.2412e-03|  5.0000e-04|  5.0000e-04|  5.0000e-04|   -4.842294|   -5.108656|   -5.507105|   -5.506863|   -5.053594|  -10.186494|    3.834399|
|         276|  6.2808e+00|  4.1510e-17|  1.2412e-03|  5.0000e-04|  5.0000e-04|  5.0000e-04|   -4.842284|   -5.108653|   -5.507100|   -5.506858|   -5.053584|  -10.186918|    3.834397|
|         277|  6.2806e+00|  4.1510e-17|  1.2412e-03|  5.0000e-04|  5.0000e-04|  5.0000e-04|   -4.842275|   -5.108651|   -5.507095|   -5.506853|   -5.053574|  -10.187024|    3.834395|
|         278|  6.2809e+00|  4.1510e-17|  1.2412e-03|  5.0000e-04|  5.0000e-04|  5.0000e-04|   -4.842266|   -5.108649|   -5.507090|   -5.506848|   -5.053565|  -10.187097|    3.834393|
|         279|  6.2807e+00|  4.1510e-17|  1.2412e-03|  5.0000e-04|  5.0000e-04|  5.0000e-04|   -4.842257|   -5.108646|   -5.507085|   -5.506843|   -5.053555|  -10.187129|    3.834391|
|         280|  6.2805e+00|  4.1510e-17|  1.2412e-03|  5.0000e-04|  5.0000e-04|  5.0000e-04|   -4.842247|   -5.108644|   -5.507080|   -5.506838|   -5.053545|  -10.187162|    3.834389|
|         281|  6.2800e+00|  4.1510e-17|  1.2412e-03|  5.0000e-04|  5.0000e-04|  5.0000e-04|   -4.842238|   -5.108642|   -5.507075|   -5.506833|   -5.053536|  -10.187351|    3.834387|
|         282|  6.2797e+00|  4.1510e-17|  1.2412e-03|  5.0000e-04|  5.0000e-04|  5.0000e-04|   -4.842229|   -5.108639|   -5.507070|   -5.506828|   -5.053526|  -10.187435|    3.834385|
|         283|  6.2796e+00|  4.1510e-17|  1.2412e-03|  5.0000e-04|  5.0000e-04|  5.0000e-04|   -4.842219|   -5.108637|   -5.507065|   -5.506823|   -5.053516|  -10.187560|    3.834383|
|         284|  6.2792e+00|  4.1510e-17|  1.2412e-03|  5.0000e-04|  5.0000e-04|  5.0000e-04|   -4.842210|   -5.108635|   -5.507060|   -5.506818|   -5.053506|  -10.187648|    3.834381|
|         285|  6.2791e+00|  4.1510e-17|  1.2412e-03|  5.0000e-04|  5.0000e-04|  5.0000e-04|   -4.842201|   -5.108633|   -5.507055|   -5.506813|   -5.053497|  -10.187684|    3.834379|
|         286|  6.2783e+00|  4.1510e-17|  1.2412e-03|  5.0000e-04|  5.0000e-04|  5.0000e-04|   -4.842192|   -5.108630|   -5.507050|   -5.506808|   -5.053487|  -10.187397|    3.834377|
|         287|  6.2780e+00|  4.1510e-17|  1.2412e-03|  5.0000e-04|  5.0000e-04|  5.0000e-04|   -4.842182|   -5.108628|   -5.507045|   -5.506803|   -5.053477|  -10.187581|    3.834375|
|         288|  6.2775e+00|  4.1510e-17|  1.2412e-03|  5.0000e-04|  5.0000e-04|  5.0000e-04|   -4.842173|   -5.108626|   -5.507040|   -5.506798|   -5.053468|  -10.187858|    3.834373|
|         289|  6.2767e+00|  4.1510e-17|  1.2412e-03|  5.0000e-04|  5.0000e-04|  5.0000e-04|   -4.842164|   -5.108623|   -5.507035|   -5.506793|   -5.053458|  -10.180154|    3.834371|
|         290|  6.2760e+00|  4.1510e-17|  1.2412e-03|  5.0000e-04|  5.0000e-04|  5.0000e-04|   -4.842155|   -5.108621|   -5.507030|   -5.506788|   -5.053448|  -10.188687|    3.834369|
|         291|  6.2752e+00|  4.1510e-17|  1.2412e-03|  5.0000e-04|  5.0000e-04|  5.0000e-04|   -4.842145|   -5.108619|   -5.507025|   -5.506783|   -5.053439|  -10.191763|    3.834367|
|         292|  6.2746e+00|  4.1510e-17|  1.2412e-03|  5.0000e-04|  5.0000e-04|  5.0000e-04|   -4.842136|   -5.108616|   -5.507020|   -5.506778|   -5.053429|  -10.191858|    3.834365|
|         293|  6.2739e+00|  4.1510e-17|  1.2412e-03|  5.0000e-04|  5.0000e-04|  5.0000e-04|   -4.842127|   -5.108614|   -5.507015|   -5.506773|   -5.053419|  -10.191913|    3.834363|
|         294|  6.2730e+00|  4.1510e-17|  1.2412e-03|  5.0000e-04|  5.0000e-04|  5.0000e-04|   -4.842118|   -5.108612|   -5.507010|   -5.506768|   -5.053410|  -10.192010|    3.834361|
|         295|  6.2724e+00|  4.1510e-17|  1.2412e-03|  5.0000e-04|  5.0000e-04|  5.0000e-04|   -4.842109|   -5.108609|   -5.507005|   -5.506763|   -5.053400|  -10.192104|    3.834358|
|         296|  6.2718e+00|  4.1510e-17|  1.2412e-03|  5.0000e-04|  5.0000e-04|  5.0000e-04|   -4.842099|   -5.108607|   -5.507000|   -5.506758|   -5.053391|  -10.192192|    3.834356|
|         297|  6.2713e+00|  4.1510e-17|  1.2412e-03|  5.0000e-04|  5.0000e-04|  5.0000e-04|   -4.842090|   -5.108605|   -5.506995|   -5.506753|   -5.053381|  -10.192263|    3.834354|
|         298|  6.2706e+00|  4.1510e-17|  1.2412e-03|  5.0000e-04|  5.0000e-04|  5.0000e-04|   -4.842081|   -5.108602|   -5.506990|   -5.506748|   -5.053371|  -10.183677|    3.834352|
|         299|  6.2701e+00|  4.1510e-17|  1.2412e-03|  5.0000e-04|  5.0000e-04|  5.0000e-04|   -4.842072|   -5.108600|   -5.506985|   -5.506743|   -5.053362|  -10.183152|    3.834350|
|         300|  6.2695e+00|  4.1510e-17|  1.2412e-03|  5.0000e-04|  5.0000e-04|  5.0000e-04|   -4.842062|   -5.108597|   -5.506980|   -5.506738|   -5.053352|  -10.200930|    3.834348|
+-----------------------------------------------------------------------+
|        File Writing Summary       |              Filename             |
+-----------------------------------------------------------------------+
|SU2 binary restart                 |restart_flow.dat                   |
|Paraview                           |flow.vtu                           |
|Paraview surface                   |surface_flow.vtu                   |
+-----------------------------------------------------------------------+
+-------------------------------------------------------------------------------------------------------------------------------------------------------------------------------------+
|  Inner_Iter|   Time(sec)|      Min DT|      Max DT|     Min CFL|     Max CFL|     Avg CFL|    rms[Rho]|   rms[RhoU]|   rms[RhoV]|   rms[RhoW]|   rms[RhoE]|     rms[nu]|          CD|
+-------------------------------------------------------------------------------------------------------------------------------------------------------------------------------------+
|         301|  6.3136e+00|  4.1510e-17|  1.2412e-03|  5.0000e-04|  5.0000e-04|  5.0000e-04|   -4.842053|   -5.108595|   -5.506975|   -5.506733|   -5.053342|  -10.195558|    3.834346|
|         302|  6.3136e+00|  4.1510e-17|  1.2412e-03|  5.0000e-04|  5.0000e-04|  5.0000e-04|   -4.842044|   -5.108593|   -5.506970|   -5.506728|   -5.053333|  -10.197945|    3.834344|
|         303|  6.3133e+00|  4.1510e-17|  1.2412e-03|  5.0000e-04|  5.0000e-04|  5.0000e-04|   -4.842035|   -5.108590|   -5.506965|   -5.506723|   -5.053323|  -10.198007|    3.834341|
|         304|  6.3131e+00|  4.1510e-17|  1.2412e-03|  5.0000e-04|  5.0000e-04|  5.0000e-04|   -4.842026|   -5.108588|   -5.506960|   -5.506718|   -5.053314|  -10.198085|    3.834339|
|         305|  6.3132e+00|  4.1510e-17|  1.2412e-03|  5.0000e-04|  5.0000e-04|  5.0000e-04|   -4.842017|   -5.108586|   -5.506955|   -5.506713|   -5.053304|  -10.198170|    3.834337|
|         306|  6.3131e+00|  4.1510e-17|  1.2412e-03|  5.0000e-04|  5.0000e-04|  5.0000e-04|   -4.842007|   -5.108583|   -5.506950|   -5.506708|   -5.053294|  -10.198207|    3.834335|
|         307|  6.3132e+00|  4.1510e-17|  1.2412e-03|  5.0000e-04|  5.0000e-04|  5.0000e-04|   -4.841998|   -5.108581|   -5.506945|   -5.506703|   -5.053285|  -10.198285|    3.834333|
|         308|  6.3127e+00|  4.1510e-17|  1.2412e-03|  5.0000e-04|  5.0000e-04|  5.0000e-04|   -4.841989|   -5.108578|   -5.506940|   -5.506698|   -5.053275|   -9.999792|    3.834331|
|         309|  6.3123e+00|  4.1510e-17|  1.2412e-03|  5.0000e-04|  5.0000e-04|  5.0000e-04|   -4.841980|   -5.108576|   -5.506935|   -5.506693|   -5.053266|  -10.119010|    3.834328|
|         310|  6.3121e+00|  4.1510e-17|  1.2412e-03|  5.0000e-04|  5.0000e-04|  5.0000e-04|   -4.841971|   -5.108574|   -5.506930|   -5.506688|   -5.053256|  -10.197865|    3.834326|
|         311|  6.3117e+00|  4.1510e-17|  1.2412e-03|  5.0000e-04|  5.0000e-04|  5.0000e-04|   -4.841962|   -5.108571|   -5.506925|   -5.506683|   -5.053247|  -10.194493|    3.834324|
|         312|  6.3113e+00|  4.1510e-17|  1.2412e-03|  5.0000e-04|  5.0000e-04|  5.0000e-04|   -4.841953|   -5.108569|   -5.506920|   -5.506678|   -5.053237|  -10.198380|    3.834322|
|         313|  6.3114e+00|  4.1510e-17|  1.2412e-03|  5.0000e-04|  5.0000e-04|  5.0000e-04|   -4.841943|   -5.108567|   -5.506915|   -5.506673|   -5.053228|  -10.198132|    3.834320|
|         314|  6.3114e+00|  4.1510e-17|  1.2412e-03|  5.0000e-04|  5.0000e-04|  5.0000e-04|   -4.841934|   -5.108564|   -5.506910|   -5.506669|   -5.053218|  -10.193954|    3.834317|
|         315|  6.3112e+00|  4.1510e-17|  1.2412e-03|  5.0000e-04|  5.0000e-04|  5.0000e-04|   -4.841925|   -5.108562|   -5.506905|   -5.506664|   -5.053209|   -9.350950|    3.834315|
|         316|  6.3110e+00|  4.1510e-17|  1.2412e-03|  5.0000e-04|  5.0000e-04|  5.0000e-04|   -4.841916|   -5.108559|   -5.506900|   -5.506659|   -5.053199|   -9.600464|    3.834313|
|         317|  6.3106e+00|  4.1510e-17|  1.2412e-03|  5.0000e-04|  5.0000e-04|  5.0000e-04|   -4.841907|   -5.108557|   -5.506895|   -5.506654|   -5.053189|  -10.097330|    3.834311|
|         318|  6.3104e+00|  4.1510e-17|  1.2412e-03|  5.0000e-04|  5.0000e-04|  5.0000e-04|   -4.841898|   -5.108554|   -5.506890|   -5.506649|   -5.053180|  -10.209847|    3.834308|
|         319|  6.3099e+00|  4.1510e-17|  1.2412e-03|  5.0000e-04|  5.0000e-04|  5.0000e-04|   -4.841889|   -5.108552|   -5.506885|   -5.506644|   -5.053170|  -10.148740|    3.834306|
|         320|  6.3094e+00|  4.1510e-17|  1.2412e-03|  5.0000e-04|  5.0000e-04|  5.0000e-04|   -4.841880|   -5.108550|   -5.506880|   -5.506639|   -5.053161|  -10.168951|    3.834304|
|         321|  6.3092e+00|  4.1510e-17|  1.2412e-03|  5.0000e-04|  5.0000e-04|  5.0000e-04|   -4.841871|   -5.108547|   -5.506875|   -5.506634|   -5.053151|  -10.190799|    3.834302|
|         322|  6.3088e+00|  4.1510e-17|  1.2412e-03|  5.0000e-04|  5.0000e-04|  5.0000e-04|   -4.841861|   -5.108545|   -5.506871|   -5.506629|   -5.053142|  -10.193690|    3.834299|
|         323|  6.3083e+00|  4.1510e-17|  1.2412e-03|  5.0000e-04|  5.0000e-04|  5.0000e-04|   -4.841852|   -5.108542|   -5.506866|   -5.506624|   -5.053132|  -10.198405|    3.834297|
|         324|  6.3077e+00|  4.1510e-17|  1.2412e-03|  5.0000e-04|  5.0000e-04|  5.0000e-04|   -4.841843|   -5.108540|   -5.506861|   -5.506619|   -5.053123|  -10.198780|    3.834295|
|         325|  6.3072e+00|  4.1510e-17|  1.2412e-03|  5.0000e-04|  5.0000e-04|  5.0000e-04|   -4.841834|   -5.108538|   -5.506856|   -5.506614|   -5.053113|  -10.199266|    3.834293|
|         326|  6.3068e+00|  4.1510e-17|  1.2412e-03|  5.0000e-04|  5.0000e-04|  5.0000e-04|   -4.841825|   -5.108535|   -5.506851|   -5.506609|   -5.053104|  -10.199335|    3.834290|
|         327|  6.3063e+00|  4.1510e-17|  1.2412e-03|  5.0000e-04|  5.0000e-04|  5.0000e-04|   -4.841816|   -5.108533|   -5.506846|   -5.506604|   -5.053094|  -10.199298|    3.834288|
|         328|  6.3060e+00|  4.1510e-17|  1.2412e-03|  5.0000e-04|  5.0000e-04|  5.0000e-04|   -4.841807|   -5.108530|   -5.506841|   -5.506599|   -5.053085|  -10.199458|    3.834286|
|         329|  6.3054e+00|  4.1510e-17|  1.2412e-03|  5.0000e-04|  5.0000e-04|  5.0000e-04|   -4.841798|   -5.108528|   -5.506836|   -5.506595|   -5.053076|  -10.199628|    3.834284|
|         330|  6.3047e+00|  4.1510e-17|  1.2412e-03|  5.0000e-04|  5.0000e-04|  5.0000e-04|   -4.841789|   -5.108525|   -5.506831|   -5.506590|   -5.053066|  -10.199609|    3.834281|
|         331|  6.3044e+00|  4.1510e-17|  1.2412e-03|  5.0000e-04|  5.0000e-04|  5.0000e-04|   -4.841780|   -5.108523|   -5.506826|   -5.506585|   -5.053057|  -10.199475|    3.834279|
|         332|  6.3040e+00|  4.1510e-17|  1.2412e-03|  5.0000e-04|  5.0000e-04|  5.0000e-04|   -4.841771|   -5.108520|   -5.506821|   -5.506580|   -5.053047|  -10.199622|    3.834277|
|         333|  6.3044e+00|  4.1510e-17|  1.2412e-03|  5.0000e-04|  5.0000e-04|  5.0000e-04|   -4.841762|   -5.108518|   -5.506816|   -5.506575|   -5.053038|  -10.199770|    3.834274|
|         334|  6.3047e+00|  4.1510e-17|  1.2412e-03|  5.0000e-04|  5.0000e-04|  5.0000e-04|   -4.841753|   -5.108515|   -5.506811|   -5.506570|   -5.053028|  -10.199755|    3.834272|
|         335|  6.3049e+00|  4.1510e-17|  1.2412e-03|  5.0000e-04|  5.0000e-04|  5.0000e-04|   -4.841744|   -5.108513|   -5.506806|   -5.506565|   -5.053019|  -10.199770|    3.834270|
|         336|  6.3045e+00|  4.1510e-17|  1.2412e-03|  5.0000e-04|  5.0000e-04|  5.0000e-04|   -4.841735|   -5.108511|   -5.506802|   -5.506560|   -5.053009|  -10.185088|    3.834267|
|         337|  6.3044e+00|  4.1510e-17|  1.2412e-03|  5.0000e-04|  5.0000e-04|  5.0000e-04|   -4.841726|   -5.108508|   -5.506797|   -5.506555|   -5.053000|   -8.919702|    3.834265|
|         338|  6.3041e+00|  4.1510e-17|  1.2412e-03|  5.0000e-04|  5.0000e-04|  5.0000e-04|   -4.841717|   -5.108506|   -5.506792|   -5.506550|   -5.052991|  -10.053503|    3.834263|
|         339|  6.3037e+00|  4.1510e-17|  1.2412e-03|  5.0000e-04|  5.0000e-04|  5.0000e-04|   -4.841708|   -5.108503|   -5.506787|   -5.506545|   -5.052981|  -10.200331|    3.834260|
|         340|  6.3031e+00|  4.1510e-17|  1.2412e-03|  5.0000e-04|  5.0000e-04|  5.0000e-04|   -4.841699|   -5.108501|   -5.506782|   -5.506541|   -5.052972|  -10.200662|    3.834258|
|         341|  6.3026e+00|  4.1510e-17|  1.2412e-03|  5.0000e-04|  5.0000e-04|  5.0000e-04|   -4.841690|   -5.108498|   -5.506777|   -5.506536|   -5.052962|  -10.200869|    3.834256|
|         342|  6.3020e+00|  4.1510e-17|  1.2412e-03|  5.0000e-04|  5.0000e-04|  5.0000e-04|   -4.841681|   -5.108496|   -5.506772|   -5.506531|   -5.052953|  -10.200977|    3.834253|
|         343|  6.3017e+00|  4.1510e-17|  1.2412e-03|  5.0000e-04|  5.0000e-04|  5.0000e-04|   -4.841672|   -5.108493|   -5.506767|   -5.506526|   -5.052944|  -10.200934|    3.834251|
|         344|  6.3013e+00|  4.1510e-17|  1.2412e-03|  5.0000e-04|  5.0000e-04|  5.0000e-04|   -4.841663|   -5.108491|   -5.506762|   -5.506521|   -5.052934|  -10.200926|    3.834248|
|         345|  6.3008e+00|  4.1510e-17|  1.2412e-03|  5.0000e-04|  5.0000e-04|  5.0000e-04|   -4.841654|   -5.108488|   -5.506757|   -5.506516|   -5.052925|  -10.200992|    3.834246|
|         346|  6.3001e+00|  4.1510e-17|  1.2412e-03|  5.0000e-04|  5.0000e-04|  5.0000e-04|   -4.841645|   -5.108486|   -5.506753|   -5.506511|   -5.052915|  -10.200783|    3.834244|
|         347|  6.2994e+00|  4.1510e-17|  1.2412e-03|  5.0000e-04|  5.0000e-04|  5.0000e-04|   -4.841636|   -5.108483|   -5.506748|   -5.506506|   -5.052906|  -10.200626|    3.834241|
|         348|  6.2987e+00|  4.1510e-17|  1.2412e-03|  5.0000e-04|  5.0000e-04|  5.0000e-04|   -4.841627|   -5.108481|   -5.506743|   -5.506501|   -5.052897|  -10.201062|    3.834239|
|         349|  6.2980e+00|  4.1510e-17|  1.2412e-03|  5.0000e-04|  5.0000e-04|  5.0000e-04|   -4.841618|   -5.108478|   -5.506738|   -5.506497|   -5.052887|  -10.201178|    3.834236|
|         350|  6.2971e+00|  4.1510e-17|  1.2412e-03|  5.0000e-04|  5.0000e-04|  5.0000e-04|   -4.841609|   -5.108476|   -5.506733|   -5.506492|   -5.052878|  -10.201214|    3.834234|
[...]
|        6828|  5.8927e+00|  4.5470e-20|  1.2412e-03|  5.0000e-04|  5.0000e-04|  5.0000e-04|   -4.879618|   -5.071833|   -5.504937|   -5.504642|   -5.088702|   -6.335643|    3.714934|
|        6829|  5.8927e+00|  4.5470e-20|  1.2412e-03|  5.0000e-04|  5.0000e-04|  5.0000e-04|   -4.879631|   -5.071828|   -5.504940|   -5.504645|   -5.088716|   -6.335838|    3.714903|
|        6830|  5.8926e+00|  4.5470e-20|  1.2412e-03|  5.0000e-04|  5.0000e-04|  5.0000e-04|   -4.879645|   -5.071823|   -5.504942|   -5.504647|   -5.088729|   -6.336032|    3.714872|
|        6831|  5.8926e+00|  4.5470e-20|  1.2412e-03|  5.0000e-04|  5.0000e-04|  5.0000e-04|   -4.879658|   -5.071818|   -5.504944|   -5.504649|   -5.088743|   -6.336234|    3.714841|
|        6832|  5.8926e+00|  4.5470e-20|  1.2412e-03|  5.0000e-04|  5.0000e-04|  5.0000e-04|   -4.879672|   -5.071813|   -5.504947|   -5.504652|   -5.088756|   -6.336408|    3.714810|
|        6833|  5.8926e+00|  4.5470e-20|  1.2412e-03|  5.0000e-04|  5.0000e-04|  5.0000e-04|   -4.879685|   -5.071808|   -5.504949|   -5.504654|   -5.088770|   -6.336601|    3.714779|
|        6834|  5.8926e+00|  4.5470e-20|  1.2412e-03|  5.0000e-04|  5.0000e-04|  5.0000e-04|   -4.879699|   -5.071803|   -5.504951|   -5.504656|   -5.088784|   -6.336792|    3.714748|
|        6835|  5.8926e+00|  4.5470e-20|  1.2412e-03|  5.0000e-04|  5.0000e-04|  5.0000e-04|   -4.879712|   -5.071799|   -5.504954|   -5.504658|   -5.088797|   -6.336982|    3.714717|
|        6836|  5.8926e+00|  4.5470e-20|  1.2412e-03|  5.0000e-04|  5.0000e-04|  5.0000e-04|   -4.879726|   -5.071794|   -5.504956|   -5.504661|   -5.088811|   -6.337172|    3.714686|
|        6837|  5.8926e+00|  4.5470e-20|  1.2412e-03|  5.0000e-04|  5.0000e-04|  5.0000e-04|   -4.879739|   -5.071789|   -5.504958|   -5.504663|   -5.088824|   -6.337362|    3.714655|
|        6838|  5.8926e+00|  4.5470e-20|  1.2412e-03|  5.0000e-04|  5.0000e-04|  5.0000e-04|   -4.879753|   -5.071784|   -5.504961|   -5.504665|   -5.088838|   -6.337550|    3.714624|
|        6839|  5.8925e+00|  4.5470e-20|  1.2412e-03|  5.0000e-04|  5.0000e-04|  5.0000e-04|   -4.879766|   -5.071779|   -5.504963|   -5.504668|   -5.088851|   -6.337739|    3.714593|
|        6840|  5.8923e+00|  4.5470e-20|  1.2412e-03|  5.0000e-04|  5.0000e-04|  5.0000e-04|   -4.879780|   -5.071774|   -5.504965|   -5.504670|   -5.088865|   -6.337927|    3.714561|
|        6841|  5.8921e+00|  4.5470e-20|  1.2412e-03|  5.0000e-04|  5.0000e-04|  5.0000e-04|   -4.879793|   -5.071769|   -5.504967|   -5.504672|   -5.088878|   -6.338115|    3.714530|
|        6842|  5.8919e+00|  4.5470e-20|  1.2412e-03|  5.0000e-04|  5.0000e-04|  5.0000e-04|   -4.879806|   -5.071764|   -5.504970|   -5.504675|   -5.088892|   -6.338302|    3.714499|
|        6843|  5.8918e+00|  4.5470e-20|  1.2412e-03|  5.0000e-04|  5.0000e-04|  5.0000e-04|   -4.879820|   -5.071759|   -5.504972|   -5.504677|   -5.088905|   -6.338489|    3.714468|
|        6844|  5.8917e+00|  4.5470e-20|  1.2412e-03|  5.0000e-04|  5.0000e-04|  5.0000e-04|   -4.879833|   -5.071754|   -5.504974|   -5.504679|   -5.088919|   -6.338675|    3.714437|
|        6845|  5.8915e+00|  4.5470e-20|  1.2412e-03|  5.0000e-04|  5.0000e-04|  5.0000e-04|   -4.879847|   -5.071750|   -5.504977|   -5.504681|   -5.088932|   -6.338861|    3.714406|
|        6846|  5.8913e+00|  4.5470e-20|  1.2412e-03|  5.0000e-04|  5.0000e-04|  5.0000e-04|   -4.879860|   -5.071745|   -5.504979|   -5.504684|   -5.088946|   -6.339047|    3.714375|
|        6847|  5.8911e+00|  4.5470e-20|  1.2412e-03|  5.0000e-04|  5.0000e-04|  5.0000e-04|   -4.879874|   -5.071740|   -5.504981|   -5.504686|   -5.088960|   -6.339233|    3.714344|
|        6848|  5.8909e+00|  4.5470e-20|  1.2412e-03|  5.0000e-04|  5.0000e-04|  5.0000e-04|   -4.879887|   -5.071735|   -5.504984|   -5.504688|   -5.088973|   -6.339419|    3.714313|
|        6849|  5.8907e+00|  4.5470e-20|  1.2412e-03|  5.0000e-04|  5.0000e-04|  5.0000e-04|   -4.879901|   -5.071730|   -5.504986|   -5.504691|   -5.088987|   -6.339604|    3.714282|
|        6850|  5.8905e+00|  4.5470e-20|  1.2412e-03|  5.0000e-04|  5.0000e-04|  5.0000e-04|   -4.879914|   -5.071725|   -5.504988|   -5.504693|   -5.089000|   -6.339789|    3.714251|
|        6851|  5.8903e+00|  4.5470e-20|  1.2412e-03|  5.0000e-04|  5.0000e-04|  5.0000e-04|   -4.879927|   -5.071720|   -5.504991|   -5.504695|   -5.089014|   -6.339974|    3.714220|
|        6852|  5.8902e+00|  4.5470e-20|  1.2412e-03|  5.0000e-04|  5.0000e-04|  5.0000e-04|   -4.879941|   -5.071715|   -5.504993|   -5.504697|   -5.089027|   -6.340159|    3.714188|
|        6853|  5.8899e+00|  4.5470e-20|  1.2412e-03|  5.0000e-04|  5.0000e-04|  5.0000e-04|   -4.879954|   -5.071710|   -5.504995|   -5.504700|   -5.089041|   -6.340344|    3.714157|
|        6854|  5.8896e+00|  4.5470e-20|  1.2412e-03|  5.0000e-04|  5.0000e-04|  5.0000e-04|   -4.879968|   -5.071705|   -5.504997|   -5.504702|   -5.089054|   -6.340528|    3.714126|
|        6855|  5.8894e+00|  4.5470e-20|  1.2412e-03|  5.0000e-04|  5.0000e-04|  5.0000e-04|   -4.879981|   -5.071701|   -5.505000|   -5.504704|   -5.089068|   -6.340713|    3.714095|
|        6856|  5.8891e+00|  4.5470e-20|  1.2412e-03|  5.0000e-04|  5.0000e-04|  5.0000e-04|   -4.879995|   -5.071696|   -5.505002|   -5.504707|   -5.089081|   -6.340896|    3.714064|
|        6857|  5.8888e+00|  4.5470e-20|  1.2412e-03|  5.0000e-04|  5.0000e-04|  5.0000e-04|   -4.880008|   -5.071691|   -5.505004|   -5.504709|   -5.089095|   -6.341080|    3.714033|
|        6858|  5.8884e+00|  4.5470e-20|  1.2412e-03|  5.0000e-04|  5.0000e-04|  5.0000e-04|   -4.880022|   -5.071686|   -5.505007|   -5.504711|   -5.089108|   -6.341265|    3.714002|
|        6859|  5.8882e+00|  4.5470e-20|  1.2412e-03|  5.0000e-04|  5.0000e-04|  5.0000e-04|   -4.880035|   -5.071681|   -5.505009|   -5.504714|   -5.089122|   -6.341449|    3.713971|
|        6860|  5.8878e+00|  4.5470e-20|  1.2412e-03|  5.0000e-04|  5.0000e-04|  5.0000e-04|   -4.880048|   -5.071676|   -5.505011|   -5.504716|   -5.089135|   -6.341633|    3.713940|
|        6861|  5.8876e+00|  4.5470e-20|  1.2412e-03|  5.0000e-04|  5.0000e-04|  5.0000e-04|   -4.880062|   -5.071671|   -5.505014|   -5.504718|   -5.089149|   -6.341817|    3.713908|
|        6862|  5.8873e+00|  4.5470e-20|  1.2412e-03|  5.0000e-04|  5.0000e-04|  5.0000e-04|   -4.880075|   -5.071666|   -5.505016|   -5.504720|   -5.089162|   -6.341999|    3.713877|
|        6863|  5.8870e+00|  4.5470e-20|  1.2412e-03|  5.0000e-04|  5.0000e-04|  5.0000e-04|   -4.880089|   -5.071661|   -5.505018|   -5.504723|   -5.089176|   -6.342184|    3.713846|
|        6864|  5.8868e+00|  4.5470e-20|  1.2412e-03|  5.0000e-04|  5.0000e-04|  5.0000e-04|   -4.880102|   -5.071657|   -5.505021|   -5.504725|   -5.089189|   -6.342367|    3.713815|
|        6865|  5.8865e+00|  4.5470e-20|  1.2412e-03|  5.0000e-04|  5.0000e-04|  5.0000e-04|   -4.880115|   -5.071652|   -5.505023|   -5.504727|   -5.089203|   -6.342551|    3.713784|
|        6866|  5.8863e+00|  4.5470e-20|  1.2412e-03|  5.0000e-04|  5.0000e-04|  5.0000e-04|   -4.880129|   -5.071647|   -5.505025|   -5.504730|   -5.089216|   -6.342734|    3.713753|
|        6867|  5.8861e+00|  4.5470e-20|  1.2412e-03|  5.0000e-04|  5.0000e-04|  5.0000e-04|   -4.880142|   -5.071642|   -5.505027|   -5.504732|   -5.089230|   -6.342917|    3.713722|
|        6868|  5.8859e+00|  4.5470e-20|  1.2412e-03|  5.0000e-04|  5.0000e-04|  5.0000e-04|   -4.880156|   -5.071637|   -5.505030|   -5.504734|   -5.089243|   -6.343100|    3.713691|
|        6869|  5.8856e+00|  4.5470e-20|  1.2412e-03|  5.0000e-04|  5.0000e-04|  5.0000e-04|   -4.880169|   -5.071632|   -5.505032|   -5.504737|   -5.089257|   -6.343284|    3.713659|
|        6870|  5.8854e+00|  4.5470e-20|  1.2412e-03|  5.0000e-04|  5.0000e-04|  5.0000e-04|   -4.880182|   -5.071627|   -5.505034|   -5.504739|   -5.089270|   -6.343466|    3.713628|
|        6871|  5.8850e+00|  4.5470e-20|  1.2412e-03|  5.0000e-04|  5.0000e-04|  5.0000e-04|   -4.880196|   -5.071622|   -5.505037|   -5.504741|   -5.089284|   -6.343650|    3.713597|
|        6872|  5.8846e+00|  4.5470e-20|  1.2412e-03|  5.0000e-04|  5.0000e-04|  5.0000e-04|   -4.880209|   -5.071618|   -5.505039|   -5.504743|   -5.089297|   -6.343832|    3.713566|
|        6873|  5.8842e+00|  4.5470e-20|  1.2412e-03|  5.0000e-04|  5.0000e-04|  5.0000e-04|   -4.880223|   -5.071613|   -5.505041|   -5.504746|   -5.089311|   -6.344015|    3.713535|
|        6874|  5.8838e+00|  4.5470e-20|  1.2412e-03|  5.0000e-04|  5.0000e-04|  5.0000e-04|   -4.880236|   -5.071608|   -5.505044|   -5.504748|   -5.089324|   -6.344198|    3.713504|
|        6875|  5.8835e+00|  4.5470e-20|  1.2412e-03|  5.0000e-04|  5.0000e-04|  5.0000e-04|   -4.880249|   -5.071603|   -5.505046|   -5.504750|   -5.089338|   -6.344381|    3.713472|
|        6876|  5.8831e+00|  4.5470e-20|  1.2412e-03|  5.0000e-04|  5.0000e-04|  5.0000e-04|   -4.880263|   -5.071598|   -5.505048|   -5.504753|   -5.089351|   -6.344563|    3.713441|
|        6877|  5.8828e+00|  4.5470e-20|  1.2412e-03|  5.0000e-04|  5.0000e-04|  5.0000e-04|   -4.880276|   -5.071593|   -5.505051|   -5.504755|   -5.089365|   -6.344746|    3.713410|
|        6878|  5.8825e+00|  4.5470e-20|  1.2412e-03|  5.0000e-04|  5.0000e-04|  5.0000e-04|   -4.880290|   -5.071588|   -5.505053|   -5.504757|   -5.089378|   -6.344929|    3.713379|
|        6879|  5.8848e+00|  4.5470e-20|  1.2412e-03|  5.0000e-04|  5.0000e-04|  5.0000e-04|   -4.880303|   -5.071583|   -5.505055|   -5.504759|   -5.089392|   -6.345111|    3.713348|
|        6880|  5.9486e+00|  4.5470e-20|  1.2412e-03|  5.0000e-04|  5.0000e-04|  5.0000e-04|   -4.880316|   -5.071579|   -5.505057|   -5.504762|   -5.089405|   -6.345293|    3.713317|
|        6881|  5.9483e+00|  4.5470e-20|  1.2412e-03|  5.0000e-04|  5.0000e-04|  5.0000e-04|   -4.880330|   -5.071574|   -5.505060|   -5.504764|   -5.089419|   -6.345476|    3.713285|
|        6882|  5.9481e+00|  4.5470e-20|  1.2412e-03|  5.0000e-04|  5.0000e-04|  5.0000e-04|   -4.880343|   -5.071569|   -5.505062|   -5.504766|   -5.089432|   -6.345658|    3.713254|
|        6883|  5.9477e+00|  4.5470e-20|  1.2412e-03|  5.0000e-04|  5.0000e-04|  5.0000e-04|   -4.880357|   -5.071564|   -5.505064|   -5.504769|   -5.089446|   -6.345841|    3.713223|
|        6884|  5.9475e+00|  4.5470e-20|  1.2412e-03|  5.0000e-04|  5.0000e-04|  5.0000e-04|   -4.880370|   -5.071559|   -5.505067|   -5.504771|   -5.089459|   -6.346023|    3.713192|
|        6885|  5.9472e+00|  4.5470e-20|  1.2412e-03|  5.0000e-04|  5.0000e-04|  5.0000e-04|   -4.880383|   -5.071554|   -5.505069|   -5.504773|   -5.089473|   -6.346204|    3.713161|
|        6886|  5.9470e+00|  4.5470e-20|  1.2412e-03|  5.0000e-04|  5.0000e-04|  5.0000e-04|   -4.880397|   -5.071549|   -5.505071|   -5.504776|   -5.089486|   -6.346387|    3.713130|
|        6887|  5.9467e+00|  4.5470e-20|  1.2412e-03|  5.0000e-04|  5.0000e-04|  5.0000e-04|   -4.880410|   -5.071545|   -5.505074|   -5.504778|   -5.089500|   -6.346569|    3.713098|
|        6888|  5.9464e+00|  4.5470e-20|  1.2412e-03|  5.0000e-04|  5.0000e-04|  5.0000e-04|   -4.880423|   -5.071540|   -5.505076|   -5.504780|   -5.089513|   -6.346751|    3.713067|
|        6889|  5.9461e+00|  4.5470e-20|  1.2412e-03|  5.0000e-04|  5.0000e-04|  5.0000e-04|   -4.880437|   -5.071535|   -5.505078|   -5.504782|   -5.089527|   -6.346933|    3.713036|
|        6890|  5.9458e+00|  4.5470e-20|  1.2412e-03|  5.0000e-04|  5.0000e-04|  5.0000e-04|   -4.880450|   -5.071530|   -5.505081|   -5.504785|   -5.089540|   -6.347115|    3.713005|
|        6891|  5.9455e+00|  4.5470e-20|  1.2412e-03|  5.0000e-04|  5.0000e-04|  5.0000e-04|   -4.880463|   -5.071525|   -5.505083|   -5.504787|   -5.089554|   -6.347292|    3.712974|
|        6892|  5.9453e+00|  4.5470e-20|  1.2412e-03|  5.0000e-04|  5.0000e-04|  5.0000e-04|   -4.880477|   -5.071520|   -5.505085|   -5.504789|   -5.089567|   -6.347472|    3.712942|
|        6893|  5.9450e+00|  4.5470e-20|  1.2412e-03|  5.0000e-04|  5.0000e-04|  5.0000e-04|   -4.880490|   -5.071515|   -5.505087|   -5.504792|   -5.089580|   -6.347657|    3.712911|
|        6894|  5.9448e+00|  4.5470e-20|  1.2412e-03|  5.0000e-04|  5.0000e-04|  5.0000e-04|   -4.880504|   -5.071511|   -5.505090|   -5.504794|   -5.089594|   -6.347839|    3.712880|
|        6895|  5.9445e+00|  4.5470e-20|  1.2412e-03|  5.0000e-04|  5.0000e-04|  5.0000e-04|   -4.880517|   -5.071506|   -5.505092|   -5.504796|   -5.089607|   -6.348022|    3.712849|
|        6896|  5.9443e+00|  4.5470e-20|  1.2412e-03|  5.0000e-04|  5.0000e-04|  5.0000e-04|   -4.880530|   -5.071501|   -5.505094|   -5.504798|   -5.089621|   -6.348202|    3.712818|
|        6897|  5.9441e+00|  4.5470e-20|  1.2412e-03|  5.0000e-04|  5.0000e-04|  5.0000e-04|   -4.880544|   -5.071496|   -5.505097|   -5.504801|   -5.089634|   -6.348383|    3.712786|
|        6898|  5.9438e+00|  4.5470e-20|  1.2412e-03|  5.0000e-04|  5.0000e-04|  5.0000e-04|   -4.880557|   -5.071491|   -5.505099|   -5.504803|   -5.089648|   -6.348565|    3.712755|
|        6899|  5.9435e+00|  4.5470e-20|  1.2412e-03|  5.0000e-04|  5.0000e-04|  5.0000e-04|   -4.880570|   -5.071486|   -5.505101|   -5.504805|   -5.089661|   -6.348747|    3.712724|
|        6900|  5.9432e+00|  4.5470e-20|  1.2412e-03|  5.0000e-04|  5.0000e-04|  5.0000e-04|   -4.880584|   -5.071482|   -5.505104|   -5.504808|   -5.089675|   -6.348936|    3.712693|
+-----------------------------------------------------------------------+
|        File Writing Summary       |              Filename             |
+-----------------------------------------------------------------------+
|SU2 binary restart                 |restart_flow.dat                   |
|Paraview                           |flow.vtu                           |
|Paraview surface                   |surface_flow.vtu                   |
+-----------------------------------------------------------------------+
+-------------------------------------------------------------------------------------------------------------------------------------------------------------------------------------+
|  Inner_Iter|   Time(sec)|      Min DT|      Max DT|     Min CFL|     Max CFL|     Avg CFL|    rms[Rho]|   rms[RhoU]|   rms[RhoV]|   rms[RhoW]|   rms[RhoE]|     rms[nu]|          CD|
+-------------------------------------------------------------------------------------------------------------------------------------------------------------------------------------+
|        6901|  5.9453e+00|  4.5470e-20|  1.2412e-03|  5.0000e-04|  5.0000e-04|  5.0000e-04|   -4.880597|   -5.071477|   -5.505106|   -5.504810|   -5.089688|   -6.349108|    3.712661|
|        6902|  5.9450e+00|  4.5470e-20|  1.2412e-03|  5.0000e-04|  5.0000e-04|  5.0000e-04|   -4.880610|   -5.071472|   -5.505108|   -5.504812|   -5.089702|   -6.349288|    3.712630|
|        6903|  5.9447e+00|  4.5470e-20|  1.2412e-03|  5.0000e-04|  5.0000e-04|  5.0000e-04|   -4.880624|   -5.071467|   -5.505110|   -5.504815|   -5.089715|   -6.349469|    3.712599|
|        6904|  5.9444e+00|  4.5470e-20|  1.2412e-03|  5.0000e-04|  5.0000e-04|  5.0000e-04|   -4.880637|   -5.071462|   -5.505113|   -5.504817|   -5.089729|   -6.349651|    3.712568|
|        6905|  5.9440e+00|  4.5470e-20|  1.2412e-03|  5.0000e-04|  5.0000e-04|  5.0000e-04|   -4.880650|   -5.071457|   -5.505115|   -5.504819|   -5.089742|   -6.349832|    3.712537|
|        6906|  5.9437e+00|  4.5470e-20|  1.2412e-03|  5.0000e-04|  5.0000e-04|  5.0000e-04|   -4.880664|   -5.071452|   -5.505117|   -5.504821|   -5.089755|   -6.350014|    3.712505|
|        6907|  5.9434e+00|  4.5470e-20|  1.2412e-03|  5.0000e-04|  5.0000e-04|  5.0000e-04|   -4.880677|   -5.071448|   -5.505120|   -5.504824|   -5.089769|   -6.350195|    3.712474|
|        6908|  5.9431e+00|  4.5470e-20|  1.2412e-03|  5.0000e-04|  5.0000e-04|  5.0000e-04|   -4.880690|   -5.071443|   -5.505122|   -5.504826|   -5.089782|   -6.350377|    3.712443|
|        6909|  5.9428e+00|  4.5470e-20|  1.2412e-03|  5.0000e-04|  5.0000e-04|  5.0000e-04|   -4.880704|   -5.071438|   -5.505124|   -5.504828|   -5.089796|   -6.350558|    3.712412|
|        6910|  5.9425e+00|  4.5470e-20|  1.2412e-03|  5.0000e-04|  5.0000e-04|  5.0000e-04|   -4.880717|   -5.071433|   -5.505127|   -5.504831|   -5.089809|   -6.350739|    3.712380|
|        6911|  5.9422e+00|  4.5470e-20|  1.2412e-03|  5.0000e-04|  5.0000e-04|  5.0000e-04|   -4.880730|   -5.071428|   -5.505129|   -5.504833|   -5.089823|   -6.350920|    3.712349|
|        6912|  5.9419e+00|  4.5470e-20|  1.2412e-03|  5.0000e-04|  5.0000e-04|  5.0000e-04|   -4.880743|   -5.071423|   -5.505131|   -5.504835|   -5.089836|   -6.351102|    3.712318|
|        6913|  5.9416e+00|  4.5470e-20|  1.2412e-03|  5.0000e-04|  5.0000e-04|  5.0000e-04|   -4.880757|   -5.071419|   -5.505134|   -5.504837|   -5.089849|   -6.351283|    3.712287|
|        6914|  5.9413e+00|  4.5470e-20|  1.2412e-03|  5.0000e-04|  5.0000e-04|  5.0000e-04|   -4.880770|   -5.071414|   -5.505136|   -5.504840|   -5.089863|   -6.351464|    3.712255|
|        6915|  5.9410e+00|  4.5470e-20|  1.2412e-03|  5.0000e-04|  5.0000e-04|  5.0000e-04|   -4.880783|   -5.071409|   -5.505138|   -5.504842|   -5.089876|   -6.351645|    3.712224|
|        6916|  5.9407e+00|  4.5470e-20|  1.2412e-03|  5.0000e-04|  5.0000e-04|  5.0000e-04|   -4.880797|   -5.071404|   -5.505140|   -5.504844|   -5.089890|   -6.351826|    3.712193|
|        6917|  5.9403e+00|  4.5470e-20|  1.2412e-03|  5.0000e-04|  5.0000e-04|  5.0000e-04|   -4.880810|   -5.071399|   -5.505143|   -5.504847|   -5.089903|   -6.352007|    3.712161|
|        6918|  5.9399e+00|  4.5470e-20|  1.2412e-03|  5.0000e-04|  5.0000e-04|  5.0000e-04|   -4.880823|   -5.071394|   -5.505145|   -5.504849|   -5.089917|   -6.352188|    3.712130|

scontrol show job 1094562
JobId=1094562 JobName=m9_medium
   UserId=anthonyy(3152141) GroupId=anthonyy(3152141) MCS_label=N/A
   Priority=687424 Nice=0 Account=rrg-jphickey QOS=normal
   JobState=COMPLETING Reason=TimeLimit Dependency=(null)
   Requeue=0 Restarts=0 BatchFlag=1 Reboot=0 ExitCode=0:15
   RunTime=18:00:09 TimeLimit=18:00:00 TimeMin=N/A
   SubmitTime=2026-03-02T22:42:06 EligibleTime=2026-03-02T22:42:06
   AccrueTime=2026-03-02T22:42:06
   StartTime=2026-03-02T22:44:34 EndTime=2026-03-03T16:44:43 Deadline=N/A
   SuspendTime=None SecsPreSuspend=0 LastSchedEval=2026-03-02T22:44:34 Scheduler=Main
   Partition=compute AllocNode:Sid=tri-login04:2278487
   ReqNodeList=(null) ExcNodeList=(null)
   NodeList=tri[0067,0156]
   BatchHost=tri0067
   NumNodes=2 NumCPUs=384 NumTasks=128 CPUs/Task=1 ReqB:S:C:T=0:0:*:*
   ReqTRES=cpu=128,mem=1534000M,node=2,billing=128
   AllocTRES=cpu=384,mem=1534000M,node=2,billing=384
   Socks/Node=* NtasksPerN:B:S:C=64:0:*:* CoreSpec=*
   MinCPUsNode=64 MinMemoryNode=0 MinTmpDiskNode=0
   Features=(null) DelayBoot=00:00:00
   OverSubscribe=NO Contiguous=0 Licenses=(null) Network=(null)
   Command=/scratch/anthonyy/reentry/orion/cases/m9_medium/run.sh
   WorkDir=/scratch/anthonyy/reentry/orion/cases/m9_medium
   Comment=/opt/slurm/bin/sbatch --export=NONE --get-user-env=L run.sh 
   StdErr=/scratch/anthonyy/reentry/orion/cases/m9_medium/orion_1094562.err
   StdIn=/dev/null
   StdOut=/scratch/anthonyy/reentry/orion/cases/m9_medium/orion_1094562.out
   TresPerTask=cpu=1
   

sacct -j 1094562
JobID           JobName    Account    Elapsed  MaxVMSize     MaxRSS  SystemCPU    UserCPU ExitCode 
------------ ---------- ---------- ---------- ---------- ---------- ---------- ---------- -------- 
1094562       m9_medium rrg-jphic+   18:00:09                        00:00.087  00:00.390      0:0 
1094562.bat+      batch rrg-jphic+   18:00:10          0     10416K  00:00.087  00:00.390     0:15 
1094562.ext+     extern rrg-jphic+   18:00:09                         00:00:00   00:00:00      0:0 
1094562.0       SU2_CFD rrg-jphic+   18:00:04                         00:00:00   00:00:00      0:0 

