Nodes: tri[0094,0141]
Tasks: 128
NPN:   64

-------------------------------------------------------------------------
|    ___ _   _ ___                                                      |
|   / __| | | |_  )   Release 7.5.1 "Blackbird"                         |
|   \__ \ |_| |/ /                                                      |
|   |___/\___//___|   Suite (Computational Fluid Dynamics Code)         |
|                                                                       |
-------------------------------------------------------------------------
| SU2 Project Website: https://su2code.github.io                        |
|                                                                       |
| The SU2 Project is maintained by the SU2 Foundation                   |
| (http://su2foundation.org)                                            |
-------------------------------------------------------------------------
| Copyright 2012-2023, SU2 Contributors                                 |
|                                                                       |
| SU2 is free software; you can redistribute it and/or                  |
| modify it under the terms of the GNU Lesser General Public            |
| License as published by the Free Software Foundation; either          |
| version 2.1 of the License, or (at your option) any later version.    |
|                                                                       |
| SU2 is distributed in the hope that it will be useful,                |
| but WITHOUT ANY WARRANTY; without even the implied warranty of        |
| MERCHANTABILITY or FITNESS FOR A PARTICULAR PURPOSE. See the GNU      |
| Lesser General Public License for more details.                       |
|                                                                       |
| You should have received a copy of the GNU Lesser General Public      |
| License along with SU2. If not, see <http://www.gnu.org/licenses/>.   |
-------------------------------------------------------------------------

Parsing config file for zone 0

----------------- Physical Case Definition ( Zone 0 ) -------------------
Compressible RANS equations.
Turbulence model: Negative-Spalart-Allmaras
Hybrid RANS/LES: No Hybrid RANS/LES
Mach number: 9.
Angle of attack (AoA): 0 deg, and angle of sideslip (AoS): 0 deg.
Reynolds number: 1.02934e+09. Reference length 5.
Reading and writing binary SU2 native restart files.
Read flow solution from: restart_flow.dat.
Non-Dimensional simulation (V=1.0, Rho=1.0, T=1.0 at the farfield).
The reference area will be computed using y(2D) or z(3D) projection.
The semi-span will be computed using the max y(3D) value.
The reference length is 0.64607 m.
Reference origin for moment evaluation is (0.25, 0, 0).
Surface(s) where the force coefficients are evaluated: ORION_SURFACE.

Input mesh file name: medium.su2

--------------- Space Numerical Integration ( Zone 0 ) ------------------
Jameson-Schmidt-Turkel scheme (2nd order in space) for the flow inviscid terms.
JST viscous coefficients (2nd & 4th): 0.5, 0.02.
The method includes a grid stretching correction (p = 0.3).
Scalar upwind solver for the turbulence model.
First order integration in space.
Average of gradients with correction (viscous flow terms).
Average of gradients with correction (viscous turbulence terms).
Gradient for upwind reconstruction: Green-Gauss.
Gradient for viscous and source terms: Green-Gauss.

--------------- Time Numerical Integration  ( Zone 0 ) ------------------
Local time stepping (steady state simulation).
Euler implicit method for the flow equations.
FGMRES is used for solving the linear system.
Using a ILU(0) preconditioning.
Convergence criteria of the linear solver: 1e-06.
Max number of linear iterations: 100.
No CFL adaptation.
Courant-Friedrichs-Lewy number:   0.0005
Euler implicit time integration for the turbulence model.

------------------ Convergence Criteria  ( Zone 0 ) ---------------------
Maximum number of solver subiterations: 999999.
Begin convergence monitoring at iteration 5.
Residual minimum value: 1e-8.
Cauchy series min. value: 1e-10.
Number of Cauchy elements: 100.
Begin windowed time average at iteration 0.

-------------------- Output Information ( Zone 0 ) ----------------------
File writing frequency: 
+------------------------------------+
|                     File| Frequency|
+------------------------------------+
|                  RESTART|       150|
|                 PARAVIEW|       150|
|         SURFACE_PARAVIEW|       150|
+------------------------------------+
Writing the convergence history file every 1 inner iterations.
Writing the screen convergence history every 1 inner iterations.
The tabular file format is CSV (.csv).
Convergence history file name: history.
Forces breakdown file name: forces_breakdown.dat.
Surface file name: surface_flow.
Volume file name: flow.
Restart file name: restart_flow.

------------- Config File Boundary Information ( Zone 0 ) ---------------
+-----------------------------------------------------------------------+
|                        Marker Type|                        Marker Name|
+-----------------------------------------------------------------------+
|                          Far-field|                           FARFIELD|
+-----------------------------------------------------------------------+
|                     Heat flux wall|                      ORION_SURFACE|
+-----------------------------------------------------------------------+

-------------------- Output Preprocessing ( Zone 0 ) --------------------

WARNING: SURFACE_PRESSURE_DROP can only be computed for at least 2 surfaces (outlet, inlet, ...)

Screen output fields: INNER_ITER, WALL_TIME, MIN_DELTA_TIME, MAX_DELTA_TIME, MIN_CFL, MAX_CFL, AVG_CFL, RMS_DENSITY, RMS_MOMENTUM-X, RMS_MOMENTUM-Y, RMS_MOMENTUM-Z, RMS_ENERGY, RMS_NU_TILDE, DRAG
History output group(s): ITER, RMS_RES
Convergence field(s): RMS_DENSITY
Warning: No (valid) fields chosen for time convergence monitoring. Time convergence monitoring inactive.
Volume output fields: COORDINATES, SOLUTION, PRIMITIVE

------------------- Geometry Preprocessing ( Zone 0 ) -------------------
Three dimensional problem.
26648118 grid points before partitioning.
74775078 volume elements before partitioning.
2 surface markers.
1778 boundary elements in index 0 (Marker = FARFIELD).
811194 boundary elements in index 1 (Marker = ORION_SURFACE).
Executing the partitioning functions.
Building the graph adjacency structure.
Calling ParMETIS... graph partitioning complete (2763415 edge cuts).
Distributing ParMETIS coloring.
Rebalancing vertices.
Rebalancing volume element connectivity.
Rebalancing markers and surface elements.
29624692 vertices including ghost points. 
78760198 interior elements including halo cells. 
33893606 tetrahedra.
44681610 prisms.
184982 pyramids.
Establishing MPI communication patterns.
Setting point connectivity.
Renumbering points (Reverse Cuthill McKee Ordering).
Recomputing point connectivity.
Setting element connectivity.
Checking the numerical grid orientation.
All volume elements are correctly orientend.
All surface elements are correctly orientend.
Identifying edges and vertices.
Setting the control volume structure.
Volume of the computational grid: 535139.
Searching for the closest normal neighbors to the surfaces.
Storing a mapping from global to local point index.
Compute the surface curvature.
Max K: 137.039. Mean K: 3.89106. Standard deviation K: 7.38179.
Checking for periodicity.
Computing mesh quality statistics for the dual control volumes.
+--------------------------------------------------------------+
|           Mesh Quality Metric|        Minimum|        Maximum|
+--------------------------------------------------------------+
|    Orthogonality Angle (deg.)|        54.3699|             90|
|     CV Face Area Aspect Ratio|        1.00113|         100241|
|           CV Sub-Volume Ratio|         1.0025|        34.9431|
+--------------------------------------------------------------+
Finding max control volume width.
Communicating number of neighbors.
Reference area = 11.5308 m^2.
Semi-span length = 2.49998 m.
Wetted area = 57.9043 m^2.
Area projection in the x-plane = 19.6335 m^2, y-plane = 11.5309 m^2, z-plane = 11.5308 m^2.
Max. coordinate in the x-direction = 2.575 m, y-direction = 2.49998 m, z-direction = 2.5 m.
Min. coordinate in the x-direction = -0.71 m, y-direction = -2.49999 m, z-direction = -2.49999 m.
Computing wall distances.

-------------------- Solver Preprocessing ( Zone 0 ) --------------------
Viscous flow: Computing pressure using the ideal gas law
based on the free-stream temperature and a density computed
from the Reynolds number.
Force coefficients computed using free-stream values.

-- Models:
+------------------------------------------------------------------------------+
|          Viscosity Model|        Conductivity Model|              Fluid Model|
+------------------------------------------------------------------------------+
|               SUTHERLAND|          CONSTANT_PRANDTL|             STANDARD_AIR|
+------------------------------------------------------------------------------+
-- Fluid properties:
+------------------------------------------------------------------------------+
|                  Name|    Dim. value|    Ref. value|      Unit|Non-dim. value|
+------------------------------------------------------------------------------+
|        Ref. Viscosity|     1.716e-05|        3683.6|   N.s/m^2|   4.65848e-09|
|      Sutherland Temp.|        273.15|        288.15|         K|      0.947944|
|     Sutherland Const.|         110.4|        288.15|         K|      0.383134|
+------------------------------------------------------------------------------+
|        Prandtl (Lam.)|             -|             -|         -|          0.72|
|       Prandtl (Turb.)|             -|             -|         -|           0.9|
+------------------------------------------------------------------------------+
|          Gas Constant|       287.058|       32552.4|  N.m/kg.K|    0.00881834|
|      Spec. Heat Ratio|             -|             -|         -|           1.4|
+------------------------------------------------------------------------------+
-- Initial and free-stream conditions:
+------------------------------------------------------------------------------+
|                  Name|    Dim. value|    Ref. value|      Unit|Non-dim. value|
+------------------------------------------------------------------------------+
|       Static Pressure|       99485.6|   1.12817e+07|        Pa|    0.00881834|
|               Density|       1.20274|       1.20274|    kg/m^3|             1|
|           Temperature|        288.15|        288.15|         K|             1|
|          Total Energy|   4.89677e+06|   9.37997e+06|   m^2/s^2|      0.522046|
|            Velocity-X|       3062.67|       3062.67|       m/s|             1|
|            Velocity-Y|             0|       3062.67|       m/s|             0|
|            Velocity-Z|             0|       3062.67|       m/s|             0|
|    Velocity Magnitude|       3062.67|       3062.67|       m/s|             1|
+------------------------------------------------------------------------------+
|             Viscosity|    1.7893e-05|        3683.6|   N.s/m^2|   4.85747e-09|
|          Conductivity|             -|    1.1991e+08|   W/m^2.K|             -|
|     Turb. Kin. Energy|       35174.9|   9.37997e+06|   m^2/s^2|       0.00375|
|     Spec. Dissipation|   2.36441e+08|       3062.67|       1/s|       77200.7|
+------------------------------------------------------------------------------+
|           Mach Number|             -|             -|         -|             9|
|       Reynolds Number|             -|             -|         -|   1.02934e+09|
+------------------------------------------------------------------------------+
Initialize Jacobian structure (Navier-Stokes). MG level: 0.
Initialize Jacobian structure (SA model).

------------------- Numerics Preprocessing ( Zone 0 ) -------------------

----------------- Integration Preprocessing ( Zone 0 ) ------------------

------------------- Iteration Preprocessing ( Zone 0 ) ------------------
Euler/Navier-Stokes/RANS fluid iteration.

------------------------------ Begin Solver -----------------------------

Simulation Run using the Single-zone Driver
WARNING: SU2 was not compiled for an AVX-capable architecture. Performance could be better,
         see https://su2code.github.io/docs_v7/Build-SU2-Linux-MacOS/#compiler-optimizations
+-------------------------------------------------------------------------------------------------------------------------------------------------------------------------------------+
|  Inner_Iter|   Time(sec)|      Min DT|      Max DT|     Min CFL|     Max CFL|     Avg CFL|    rms[Rho]|   rms[RhoU]|   rms[RhoV]|   rms[RhoW]|   rms[RhoE]|     rms[nu]|          CD|
+-------------------------------------------------------------------------------------------------------------------------------------------------------------------------------------+
|           0|  1.4249e+01|  7.7666e-21|  1.2412e-03|  5.0000e-04|  5.0000e-04|  5.0000e-04|   -4.803626|   -5.070341|   -5.445852|   -5.445612|   -4.996197|   -4.068974|    3.351799|
|           1|  1.3592e+01|  8.0189e-21|  1.2412e-03|  5.0000e-04|  5.0000e-04|  5.0000e-04|   -4.803639|   -5.070332|   -5.445858|   -5.445618|   -4.996212|   -4.071663|    3.351793|
|           2|  1.3324e+01|  8.2890e-21|  1.2412e-03|  5.0000e-04|  5.0000e-04|  5.0000e-04|   -4.803652|   -5.070322|   -5.445863|   -5.445624|   -4.996228|   -4.074462|    3.351787|
|           3|  1.3146e+01|  8.5781e-21|  1.2412e-03|  5.0000e-04|  5.0000e-04|  5.0000e-04|   -4.803665|   -5.070313|   -5.445869|   -5.445629|   -4.996244|   -4.077381|    3.351781|
|           4|  1.2977e+01|  8.8871e-21|  1.2412e-03|  5.0000e-04|  5.0000e-04|  5.0000e-04|   -4.803678|   -5.070303|   -5.445875|   -5.445635|   -4.996259|   -4.080424|    3.351775|
|           5|  1.2816e+01|  9.2173e-21|  1.2412e-03|  5.0000e-04|  5.0000e-04|  5.0000e-04|   -4.803692|   -5.070294|   -5.445881|   -5.445641|   -4.996275|   -4.083599|    3.351769|
|           6|  1.2684e+01|  9.5699e-21|  1.2412e-03|  5.0000e-04|  5.0000e-04|  5.0000e-04|   -4.803705|   -5.070285|   -5.445887|   -5.445647|   -4.996291|   -4.086915|    3.351763|
|           7|  1.2574e+01|  9.9464e-21|  1.2412e-03|  5.0000e-04|  5.0000e-04|  5.0000e-04|   -4.803718|   -5.070275|   -5.445892|   -5.445653|   -4.996307|   -4.090379|    3.351757|
|           8|  1.2495e+01|  1.0348e-20|  1.2412e-03|  5.0000e-04|  5.0000e-04|  5.0000e-04|   -4.803731|   -5.070266|   -5.445898|   -5.445658|   -4.996322|   -4.094001|    3.351751|
|           9|  1.2445e+01|  1.0777e-20|  1.2412e-03|  5.0000e-04|  5.0000e-04|  5.0000e-04|   -4.803744|   -5.070257|   -5.445904|   -5.445664|   -4.996338|   -4.097790|    3.351745|
|          10|  1.2383e+01|  1.1235e-20|  1.2412e-03|  5.0000e-04|  5.0000e-04|  5.0000e-04|   -4.803758|   -5.070247|   -5.445910|   -5.445670|   -4.996354|   -4.101757|    3.351739|
|          11|  1.2320e+01|  1.1723e-20|  1.2412e-03|  5.0000e-04|  5.0000e-04|  5.0000e-04|   -4.803771|   -5.070238|   -5.445916|   -5.445676|   -4.996369|   -4.105913|    3.351734|
|          12|  1.2253e+01|  1.2244e-20|  1.2412e-03|  5.0000e-04|  5.0000e-04|  5.0000e-04|   -4.803784|   -5.070228|   -5.445922|   -5.445682|   -4.996385|   -4.110269|    3.351728|
|          13|  1.2197e+01|  1.2800e-20|  1.2412e-03|  5.0000e-04|  5.0000e-04|  5.0000e-04|   -4.803797|   -5.070219|   -5.445927|   -5.445687|   -4.996401|   -4.114839|    3.351722|
|          14|  1.2148e+01|  1.3393e-20|  1.2412e-03|  5.0000e-04|  5.0000e-04|  5.0000e-04|   -4.803811|   -5.070210|   -5.445933|   -5.445693|   -4.996417|   -4.119636|    3.351716|
|          15|  1.2102e+01|  1.4026e-20|  1.2412e-03|  5.0000e-04|  5.0000e-04|  5.0000e-04|   -4.803824|   -5.070200|   -5.445939|   -5.445699|   -4.996432|   -4.124676|    3.351710|
|          16|  1.2049e+01|  1.4701e-20|  1.2412e-03|  5.0000e-04|  5.0000e-04|  5.0000e-04|   -4.803837|   -5.070191|   -5.445945|   -5.445705|   -4.996448|   -4.129975|    3.351704|
|          17|  1.2006e+01|  1.5422e-20|  1.2412e-03|  5.0000e-04|  5.0000e-04|  5.0000e-04|   -4.803850|   -5.070181|   -5.445951|   -5.445711|   -4.996464|   -4.135551|    3.351698|
|          18|  1.1975e+01|  1.6192e-20|  1.2412e-03|  5.0000e-04|  5.0000e-04|  5.0000e-04|   -4.803864|   -5.070172|   -5.445957|   -5.445717|   -4.996480|   -4.141413|    3.351693|
|          19|  1.1951e+01|  1.7014e-20|  1.2412e-03|  5.0000e-04|  5.0000e-04|  5.0000e-04|   -4.803877|   -5.070163|   -5.445963|   -5.445723|   -4.996496|   -4.147611|    3.351687|
|          20|  1.1917e+01|  1.7892e-20|  1.2412e-03|  5.0000e-04|  5.0000e-04|  5.0000e-04|   -4.803890|   -5.070153|   -5.445968|   -5.445728|   -4.996511|   -4.154137|    3.351681|
|          21|  1.1883e+01|  1.8830e-20|  1.2412e-03|  5.0000e-04|  5.0000e-04|  5.0000e-04|   -4.803903|   -5.070144|   -5.445974|   -5.445734|   -4.996527|   -4.161025|    3.351675|
|          22|  1.1847e+01|  1.9833e-20|  1.2412e-03|  5.0000e-04|  5.0000e-04|  5.0000e-04|   -4.803917|   -5.070134|   -5.445980|   -5.445740|   -4.996543|   -4.168301|    3.351669|
|          23|  1.1817e+01|  2.0904e-20|  1.2412e-03|  5.0000e-04|  5.0000e-04|  5.0000e-04|   -4.803930|   -5.070125|   -5.445986|   -5.445746|   -4.996559|   -4.175991|    3.351663|
|          24|  1.1783e+01|  2.2049e-20|  1.2412e-03|  5.0000e-04|  5.0000e-04|  5.0000e-04|   -4.803943|   -5.070116|   -5.445992|   -5.445752|   -4.996575|   -4.184126|    3.351658|
|          25|  1.1753e+01|  2.3274e-20|  1.2412e-03|  5.0000e-04|  5.0000e-04|  5.0000e-04|   -4.803957|   -5.070106|   -5.445998|   -5.445758|   -4.996590|   -4.192738|    3.351652|
|          26|  1.1718e+01|  2.4585e-20|  1.2412e-03|  5.0000e-04|  5.0000e-04|  5.0000e-04|   -4.803970|   -5.070097|   -5.446004|   -5.445764|   -4.996606|   -4.201860|    3.351646|
|          27|  1.1688e+01|  2.5987e-20|  1.2412e-03|  5.0000e-04|  5.0000e-04|  5.0000e-04|   -4.803983|   -5.070088|   -5.446010|   -5.445770|   -4.996622|   -4.211529|    3.351640|
|          28|  1.1657e+01|  2.7487e-20|  1.2412e-03|  5.0000e-04|  5.0000e-04|  5.0000e-04|   -4.803997|   -5.070078|   -5.446016|   -5.445775|   -4.996638|   -4.221786|    3.351634|
|          29|  1.1631e+01|  2.9094e-20|  1.2412e-03|  5.0000e-04|  5.0000e-04|  5.0000e-04|   -4.804010|   -5.070069|   -5.446021|   -5.445781|   -4.996654|   -4.232673|    3.351629|
|          30|  1.1612e+01|  3.0815e-20|  1.2412e-03|  5.0000e-04|  5.0000e-04|  5.0000e-04|   -4.804023|   -5.070059|   -5.446027|   -5.445787|   -4.996670|   -4.244235|    3.351623|
|          31|  1.1590e+01|  3.2658e-20|  1.2412e-03|  5.0000e-04|  5.0000e-04|  5.0000e-04|   -4.804037|   -5.070050|   -5.446033|   -5.445793|   -4.996685|   -4.256521|    3.351617|
|          32|  1.1567e+01|  3.4633e-20|  1.2412e-03|  5.0000e-04|  5.0000e-04|  5.0000e-04|   -4.804050|   -5.070041|   -5.446039|   -5.445799|   -4.996701|   -4.269584|    3.351611|
|          33|  1.1545e+01|  3.6750e-20|  1.2412e-03|  5.0000e-04|  5.0000e-04|  5.0000e-04|   -4.804064|   -5.070031|   -5.446045|   -5.445805|   -4.996717|   -4.283481|    3.351606|
|          34|  1.1524e+01|  3.9020e-20|  1.2412e-03|  5.0000e-04|  5.0000e-04|  5.0000e-04|   -4.804077|   -5.070022|   -5.446051|   -5.445811|   -4.996733|   -4.298272|    3.351600|
|          35|  1.1503e+01|  4.1454e-20|  1.2412e-03|  5.0000e-04|  5.0000e-04|  5.0000e-04|   -4.804090|   -5.070013|   -5.446057|   -5.445817|   -4.996749|   -4.314022|    3.351594|
|          36|  1.1479e+01|  4.4066e-20|  1.2412e-03|  5.0000e-04|  5.0000e-04|  5.0000e-04|   -4.804104|   -5.070003|   -5.446063|   -5.445823|   -4.996765|   -4.330800|    3.351588|
|          37|  1.1460e+01|  4.6869e-20|  1.2412e-03|  5.0000e-04|  5.0000e-04|  5.0000e-04|   -4.804117|   -5.069994|   -5.446069|   -5.445829|   -4.996781|   -4.348668|    3.351583|
|          38|  1.1440e+01|  4.7809e-20|  1.2412e-03|  5.0000e-04|  5.0000e-04|  5.0000e-04|   -4.804130|   -5.069984|   -5.446075|   -5.445835|   -4.996797|   -4.367725|    3.351577|
|          39|  1.1420e+01|  4.7809e-20|  1.2412e-03|  5.0000e-04|  5.0000e-04|  5.0000e-04|   -4.804144|   -5.069975|   -5.446081|   -5.445840|   -4.996812|   -4.388057|    3.351571|
|          40|  1.1403e+01|  4.7809e-20|  1.2412e-03|  5.0000e-04|  5.0000e-04|  5.0000e-04|   -4.804157|   -5.069966|   -5.446087|   -5.445846|   -4.996828|   -4.409728|    3.351565|
|          41|  1.1389e+01|  4.7809e-20|  1.2412e-03|  5.0000e-04|  5.0000e-04|  5.0000e-04|   -4.804171|   -5.069956|   -5.446093|   -5.445852|   -4.996844|   -4.432840|    3.351560|
|          42|  1.1372e+01|  4.7809e-20|  1.2412e-03|  5.0000e-04|  5.0000e-04|  5.0000e-04|   -4.804184|   -5.069947|   -5.446099|   -5.445858|   -4.996860|   -4.457489|    3.351554|
|          43|  1.1355e+01|  4.7809e-20|  1.2412e-03|  5.0000e-04|  5.0000e-04|  5.0000e-04|   -4.804198|   -5.069938|   -5.446104|   -5.445864|   -4.996876|   -4.483775|    3.351548|
|          44|  1.1338e+01|  4.7809e-20|  1.2412e-03|  5.0000e-04|  5.0000e-04|  5.0000e-04|   -4.804211|   -5.069928|   -5.446110|   -5.445870|   -4.996892|   -4.511799|    3.351543|
|          45|  1.1320e+01|  4.7809e-20|  1.2412e-03|  5.0000e-04|  5.0000e-04|  5.0000e-04|   -4.804224|   -5.069919|   -5.446116|   -5.445876|   -4.996908|   -4.541662|    3.351537|
|          46|  1.1301e+01|  4.7809e-20|  1.2412e-03|  5.0000e-04|  5.0000e-04|  5.0000e-04|   -4.804238|   -5.069909|   -5.446122|   -5.445882|   -4.996924|   -4.573466|    3.351531|
|          47|  1.1285e+01|  4.7809e-20|  1.2412e-03|  5.0000e-04|  5.0000e-04|  5.0000e-04|   -4.804251|   -5.069900|   -5.446128|   -5.445888|   -4.996940|   -4.607308|    3.351526|
|          48|  1.1270e+01|  4.7809e-20|  1.2412e-03|  5.0000e-04|  5.0000e-04|  5.0000e-04|   -4.804265|   -5.069891|   -5.446134|   -5.445894|   -4.996956|   -4.643275|    3.351520|
|          49|  1.1254e+01|  4.7809e-20|  1.2412e-03|  5.0000e-04|  5.0000e-04|  5.0000e-04|   -4.804278|   -5.069881|   -5.446140|   -5.445900|   -4.996972|   -4.681435|    3.351514|
|          50|  1.1238e+01|  4.7809e-20|  1.2412e-03|  5.0000e-04|  5.0000e-04|  5.0000e-04|   -4.804292|   -5.069872|   -5.446146|   -5.445906|   -4.996988|   -4.721879|    3.351509|
|          51|  1.1224e+01|  4.7809e-20|  1.2412e-03|  5.0000e-04|  5.0000e-04|  5.0000e-04|   -4.804305|   -5.069863|   -5.446152|   -5.445912|   -4.997004|   -4.764551|    3.351503|
|          52|  1.1212e+01|  4.7809e-20|  1.2412e-03|  5.0000e-04|  5.0000e-04|  5.0000e-04|   -4.804319|   -5.069853|   -5.446158|   -5.445918|   -4.997019|   -4.809552|    3.351497|
|          53|  1.1202e+01|  4.7809e-20|  1.2412e-03|  5.0000e-04|  5.0000e-04|  5.0000e-04|   -4.804332|   -5.069844|   -5.446164|   -5.445924|   -4.997035|   -4.857005|    3.351492|
|          54|  1.1191e+01|  4.7809e-20|  1.2412e-03|  5.0000e-04|  5.0000e-04|  5.0000e-04|   -4.804346|   -5.069835|   -5.446170|   -5.445930|   -4.997051|   -4.905962|    3.351486|
|          55|  1.1176e+01|  4.7809e-20|  1.2412e-03|  5.0000e-04|  5.0000e-04|  5.0000e-04|   -4.804359|   -5.069825|   -5.446176|   -5.445936|   -4.997067|   -4.957128|    3.351481|
|          56|  1.1163e+01|  4.7809e-20|  1.2412e-03|  5.0000e-04|  5.0000e-04|  5.0000e-04|   -4.804373|   -5.069816|   -5.446182|   -5.445942|   -4.997083|   -5.009953|    3.351475|
|          57|  1.1152e+01|  4.7809e-20|  1.2412e-03|  5.0000e-04|  5.0000e-04|  5.0000e-04|   -4.804386|   -5.069807|   -5.446188|   -5.445948|   -4.997099|   -5.064114|    3.351469|
|          58|  1.1141e+01|  4.7809e-20|  1.2412e-03|  5.0000e-04|  5.0000e-04|  5.0000e-04|   -4.804400|   -5.069797|   -5.446194|   -5.445954|   -4.997115|   -5.119182|    3.351464|
|          59|  1.1128e+01|  4.7809e-20|  1.2412e-03|  5.0000e-04|  5.0000e-04|  5.0000e-04|   -4.804413|   -5.069788|   -5.446200|   -5.445960|   -4.997131|   -5.174966|    3.351458|
|          60|  1.1117e+01|  4.7809e-20|  1.2412e-03|  5.0000e-04|  5.0000e-04|  5.0000e-04|   -4.804427|   -5.069778|   -5.446206|   -5.445966|   -4.997147|   -5.230990|    3.351453|
|          61|  1.1104e+01|  4.7809e-20|  1.2412e-03|  5.0000e-04|  5.0000e-04|  5.0000e-04|   -4.804440|   -5.069769|   -5.446212|   -5.445972|   -4.997163|   -5.287126|    3.351447|
|          62|  1.1093e+01|  4.7809e-20|  1.2412e-03|  5.0000e-04|  5.0000e-04|  5.0000e-04|   -4.804454|   -5.069760|   -5.446218|   -5.445978|   -4.997179|   -5.343386|    3.351441|
|          63|  1.1083e+01|  4.7809e-20|  1.2412e-03|  5.0000e-04|  5.0000e-04|  5.0000e-04|   -4.804468|   -5.069750|   -5.446224|   -5.445984|   -4.997195|   -5.399987|    3.351436|
|          64|  1.1075e+01|  4.7809e-20|  1.2412e-03|  5.0000e-04|  5.0000e-04|  5.0000e-04|   -4.804481|   -5.069741|   -5.446230|   -5.445990|   -4.997211|   -5.457384|    3.351430|
|          65|  1.1066e+01|  4.7809e-20|  1.2412e-03|  5.0000e-04|  5.0000e-04|  5.0000e-04|   -4.804495|   -5.069732|   -5.446236|   -5.445996|   -4.997227|   -5.516138|    3.351425|
|          66|  1.1056e+01|  4.7809e-20|  1.2412e-03|  5.0000e-04|  5.0000e-04|  5.0000e-04|   -4.804508|   -5.069722|   -5.446243|   -5.446002|   -4.997244|   -5.577020|    3.351419|
|          67|  1.1044e+01|  4.7809e-20|  1.2412e-03|  5.0000e-04|  5.0000e-04|  5.0000e-04|   -4.804522|   -5.069713|   -5.446249|   -5.446008|   -4.997260|   -5.640733|    3.351414|
|          68|  1.1033e+01|  4.7809e-20|  1.2412e-03|  5.0000e-04|  5.0000e-04|  5.0000e-04|   -4.804535|   -5.069704|   -5.446255|   -5.446014|   -4.997276|   -5.707910|    3.351408|
|          69|  1.1023e+01|  4.7809e-20|  1.2412e-03|  5.0000e-04|  5.0000e-04|  5.0000e-04|   -4.804549|   -5.069694|   -5.446261|   -5.446020|   -4.997292|   -5.780463|    3.351403|
|          70|  1.1013e+01|  4.7809e-20|  1.2412e-03|  5.0000e-04|  5.0000e-04|  5.0000e-04|   -4.804563|   -5.069685|   -5.446267|   -5.446026|   -4.997308|   -5.854973|    3.351397|
|          71|  1.1004e+01|  4.7809e-20|  1.2412e-03|  5.0000e-04|  5.0000e-04|  5.0000e-04|   -4.804576|   -5.069676|   -5.446273|   -5.446032|   -4.997324|   -5.936348|    3.351392|
|          72|  1.0995e+01|  4.7809e-20|  1.2412e-03|  5.0000e-04|  5.0000e-04|  5.0000e-04|   -4.804590|   -5.069666|   -5.446279|   -5.446038|   -4.997340|   -6.022518|    3.351386|
|          73|  1.0986e+01|  4.7809e-20|  1.2412e-03|  5.0000e-04|  5.0000e-04|  5.0000e-04|   -4.804603|   -5.069657|   -5.446285|   -5.446044|   -4.997356|   -6.112605|    3.351381|
|          74|  1.0977e+01|  4.7809e-20|  1.2412e-03|  5.0000e-04|  5.0000e-04|  5.0000e-04|   -4.804617|   -5.069648|   -5.446291|   -5.446050|   -4.997372|   -6.201876|    3.351375|
|          75|  1.0975e+01|  4.7809e-20|  1.2412e-03|  5.0000e-04|  5.0000e-04|  5.0000e-04|   -4.804631|   -5.069638|   -5.446297|   -5.446056|   -4.997388|   -6.291689|    3.351370|
|          76|  1.0971e+01|  4.7809e-20|  1.2412e-03|  5.0000e-04|  5.0000e-04|  5.0000e-04|   -4.804644|   -5.069629|   -5.446303|   -5.446062|   -4.997404|   -6.372390|    3.351364|
|          77|  1.0965e+01|  4.7809e-20|  1.2412e-03|  5.0000e-04|  5.0000e-04|  5.0000e-04|   -4.804658|   -5.069620|   -5.446309|   -5.446069|   -4.997420|   -6.452722|    3.351359|
|          78|  1.0958e+01|  4.7809e-20|  1.2412e-03|  5.0000e-04|  5.0000e-04|  5.0000e-04|   -4.804672|   -5.069610|   -5.446315|   -5.446075|   -4.997436|   -6.544123|    3.351353|
|          79|  1.0952e+01|  4.7809e-20|  1.2412e-03|  5.0000e-04|  5.0000e-04|  5.0000e-04|   -4.804685|   -5.069601|   -5.446321|   -5.446081|   -4.997453|   -6.615714|    3.351348|
|          80|  1.0944e+01|  4.7809e-20|  1.2412e-03|  5.0000e-04|  5.0000e-04|  5.0000e-04|   -4.804699|   -5.069592|   -5.446328|   -5.446087|   -4.997469|   -6.670043|    3.351342|
|          81|  1.0937e+01|  4.7809e-20|  1.2412e-03|  5.0000e-04|  5.0000e-04|  5.0000e-04|   -4.804713|   -5.069582|   -5.446334|   -5.446093|   -4.997485|   -5.726781|    3.351337|
|          82|  1.0930e+01|  4.7809e-20|  1.2412e-03|  5.0000e-04|  5.0000e-04|  5.0000e-04|   -4.804726|   -5.069573|   -5.446340|   -5.446099|   -4.997501|   -6.727511|    3.351331|
|          83|  1.0924e+01|  5.2335e-20|  1.2412e-03|  5.0000e-04|  5.0000e-04|  5.0000e-04|   -4.804740|   -5.069564|   -5.446346|   -5.446105|   -4.997517|   -6.740143|    3.351326|
|          84|  1.0918e+01|  4.8083e-20|  1.2412e-03|  5.0000e-04|  5.0000e-04|  5.0000e-04|   -4.804754|   -5.069554|   -5.446352|   -5.446111|   -4.997533|   -6.741358|    3.351320|
|          85|  1.0911e+01|  5.1897e-20|  1.2412e-03|  5.0000e-04|  5.0000e-04|  5.0000e-04|   -4.804767|   -5.069545|   -5.446358|   -5.446117|   -4.997549|   -6.746983|    3.351315|
|          86|  1.0904e+01|  4.8457e-20|  1.2412e-03|  5.0000e-04|  5.0000e-04|  5.0000e-04|   -4.804781|   -5.069536|   -5.446364|   -5.446123|   -4.997565|   -6.748740|    3.351310|
|          87|  1.0899e+01|  5.1628e-20|  1.2412e-03|  5.0000e-04|  5.0000e-04|  5.0000e-04|   -4.804795|   -5.069526|   -5.446370|   -5.446129|   -4.997582|   -6.733294|    3.351304|
|          88|  1.0892e+01|  4.9013e-20|  1.2412e-03|  5.0000e-04|  5.0000e-04|  5.0000e-04|   -4.804808|   -5.069517|   -5.446376|   -5.446136|   -4.997598|   -6.752408|    3.351299|
|          89|  1.0885e+01|  5.1461e-20|  1.2412e-03|  5.0000e-04|  5.0000e-04|  5.0000e-04|   -4.804822|   -5.069508|   -5.446383|   -5.446142|   -4.997614|   -6.751620|    3.351293|
|          90|  1.0879e+01|  4.9692e-20|  1.2412e-03|  5.0000e-04|  5.0000e-04|  5.0000e-04|   -4.804836|   -5.069498|   -5.446389|   -5.446148|   -4.997630|   -6.751380|    3.351288|
|          91|  1.0871e+01|  5.1412e-20|  1.2412e-03|  5.0000e-04|  5.0000e-04|  5.0000e-04|   -4.804850|   -5.069489|   -5.446395|   -5.446154|   -4.997646|   -6.752921|    3.351283|
|          92|  1.0864e+01|  5.0382e-20|  1.2412e-03|  5.0000e-04|  5.0000e-04|  5.0000e-04|   -4.804863|   -5.069480|   -5.446401|   -5.446160|   -4.997662|   -6.752785|    3.351277|
|          93|  1.0857e+01|  5.1488e-20|  1.2412e-03|  5.0000e-04|  5.0000e-04|  5.0000e-04|   -4.804877|   -5.069470|   -5.446407|   -5.446166|   -4.997679|   -6.755243|    3.351272|
|          94|  1.0850e+01|  5.0999e-20|  1.2412e-03|  5.0000e-04|  5.0000e-04|  5.0000e-04|   -4.804891|   -5.069461|   -5.446413|   -5.446172|   -4.997695|   -6.755915|    3.351266|
|          95|  1.0844e+01|  5.1669e-20|  1.2412e-03|  5.0000e-04|  5.0000e-04|  5.0000e-04|   -4.804905|   -5.069452|   -5.446419|   -5.446178|   -4.997711|   -6.753512|    3.351261|
|          96|  1.0838e+01|  5.1518e-20|  1.2412e-03|  5.0000e-04|  5.0000e-04|  5.0000e-04|   -4.804918|   -5.069442|   -5.446426|   -5.446185|   -4.997727|   -6.756041|    3.351256|
|          97|  1.0832e+01|  5.1922e-20|  1.2412e-03|  5.0000e-04|  5.0000e-04|  5.0000e-04|   -4.804932|   -5.069433|   -5.446432|   -5.446191|   -4.997743|   -6.751801|    3.351250|
|          98|  1.0827e+01|  5.1951e-20|  1.2412e-03|  5.0000e-04|  5.0000e-04|  5.0000e-04|   -4.804946|   -5.069424|   -5.446438|   -5.446197|   -4.997760|   -6.757818|    3.351245|
|          99|  1.0822e+01|  5.2213e-20|  1.2412e-03|  5.0000e-04|  5.0000e-04|  5.0000e-04|   -4.804960|   -5.069414|   -5.446444|   -5.446203|   -4.997776|   -6.755891|    3.351240|
|         100|  1.0817e+01|  5.2322e-20|  1.2412e-03|  5.0000e-04|  5.0000e-04|  5.0000e-04|   -4.804974|   -5.069405|   -5.446450|   -5.446209|   -4.997792|   -6.744348|    3.351234|
|         101|  1.0812e+01|  5.2517e-20|  1.2412e-03|  5.0000e-04|  5.0000e-04|  5.0000e-04|   -4.804987|   -5.069396|   -5.446456|   -5.446215|   -4.997808|   -6.627024|    3.351229|
|         102|  1.0806e+01|  5.2654e-20|  1.2412e-03|  5.0000e-04|  5.0000e-04|  5.0000e-04|   -4.805001|   -5.069387|   -5.446463|   -5.446222|   -4.997824|   -6.264456|    3.351224|
|         103|  1.0799e+01|  5.2816e-20|  1.2412e-03|  5.0000e-04|  5.0000e-04|  5.0000e-04|   -4.805015|   -5.069377|   -5.446469|   -5.446228|   -4.997841|   -6.619756|    3.351218|
|         104|  1.0794e+01|  5.2957e-20|  1.2412e-03|  5.0000e-04|  5.0000e-04|  5.0000e-04|   -4.805029|   -5.069368|   -5.446475|   -5.446234|   -4.997857|   -6.600239|    3.351213|
|         105|  1.0789e+01|  5.3102e-20|  1.2412e-03|  5.0000e-04|  5.0000e-04|  5.0000e-04|   -4.805043|   -5.069359|   -5.446481|   -5.446240|   -4.997873|   -6.614747|    3.351208|
|         106|  1.0783e+01|  5.3238e-20|  1.2412e-03|  5.0000e-04|  5.0000e-04|  5.0000e-04|   -4.805056|   -5.069349|   -5.446487|   -5.446246|   -4.997889|   -6.674109|    3.351202|
|         107|  1.0777e+01|  5.3372e-20|  1.2412e-03|  5.0000e-04|  5.0000e-04|  5.0000e-04|   -4.805070|   -5.069340|   -5.446493|   -5.446252|   -4.997906|   -6.659102|    3.351197|
|         108|  1.0772e+01|  5.3501e-20|  1.2412e-03|  5.0000e-04|  5.0000e-04|  5.0000e-04|   -4.805084|   -5.069331|   -5.446500|   -5.446259|   -4.997922|   -6.703194|    3.351192|
|         109|  1.0768e+01|  5.3626e-20|  1.2412e-03|  5.0000e-04|  5.0000e-04|  5.0000e-04|   -4.805098|   -5.069321|   -5.446506|   -5.446265|   -4.997938|   -6.689953|    3.351187|
|         110|  1.0764e+01|  5.3746e-20|  1.2412e-03|  5.0000e-04|  5.0000e-04|  5.0000e-04|   -4.805112|   -5.069312|   -5.446512|   -5.446271|   -4.997954|   -6.727381|    3.351181|
|         111|  1.0762e+01|  5.3862e-20|  1.2412e-03|  5.0000e-04|  5.0000e-04|  5.0000e-04|   -4.805126|   -5.069303|   -5.446518|   -5.446277|   -4.997971|   -6.702167|    3.351176|
|         112|  1.0758e+01|  5.3975e-20|  1.2412e-03|  5.0000e-04|  5.0000e-04|  5.0000e-04|   -4.805139|   -5.069293|   -5.446525|   -5.446283|   -4.997987|   -6.728193|    3.351171|
|         113|  1.0753e+01|  5.4083e-20|  1.2412e-03|  5.0000e-04|  5.0000e-04|  5.0000e-04|   -4.805153|   -5.069284|   -5.446531|   -5.446290|   -4.998003|   -6.732896|    3.351166|
|         114|  1.0749e+01|  5.4187e-20|  1.2412e-03|  5.0000e-04|  5.0000e-04|  5.0000e-04|   -4.805167|   -5.069275|   -5.446537|   -5.446296|   -4.998020|   -6.755377|    3.351160|
|         115|  1.0744e+01|  5.4288e-20|  1.2412e-03|  5.0000e-04|  5.0000e-04|  5.0000e-04|   -4.805181|   -5.069266|   -5.446543|   -5.446302|   -4.998036|   -6.744880|    3.351155|
|         116|  1.0740e+01|  5.4385e-20|  1.2412e-03|  5.0000e-04|  5.0000e-04|  5.0000e-04|   -4.805195|   -5.069256|   -5.446549|   -5.446308|   -4.998052|   -6.761883|    3.351150|
|         117|  1.0735e+01|  5.4478e-20|  1.2412e-03|  5.0000e-04|  5.0000e-04|  5.0000e-04|   -4.805209|   -5.069247|   -5.446556|   -5.446314|   -4.998069|   -6.748664|    3.351145|
|         118|  1.0731e+01|  5.4568e-20|  1.2412e-03|  5.0000e-04|  5.0000e-04|  5.0000e-04|   -4.805223|   -5.069238|   -5.446562|   -5.446321|   -4.998085|   -6.766718|    3.351139|
|         119|  1.0726e+01|  5.4655e-20|  1.2412e-03|  5.0000e-04|  5.0000e-04|  5.0000e-04|   -4.805237|   -5.069228|   -5.446568|   -5.446327|   -4.998101|   -6.759748|    3.351134|
|         120|  1.0721e+01|  5.4738e-20|  1.2412e-03|  5.0000e-04|  5.0000e-04|  5.0000e-04|   -4.805251|   -5.069219|   -5.446574|   -5.446333|   -4.998117|   -6.769336|    3.351129|
|         121|  1.0716e+01|  5.4818e-20|  1.2412e-03|  5.0000e-04|  5.0000e-04|  5.0000e-04|   -4.805264|   -5.069210|   -5.446581|   -5.446339|   -4.998134|   -6.763728|    3.351124|
|         122|  1.0714e+01|  5.4895e-20|  1.2412e-03|  5.0000e-04|  5.0000e-04|  5.0000e-04|   -4.805278|   -5.069200|   -5.446587|   -5.446346|   -4.998150|   -6.770514|    3.351119|
|         123|  1.0710e+01|  5.4969e-20|  1.2412e-03|  5.0000e-04|  5.0000e-04|  5.0000e-04|   -4.805292|   -5.069191|   -5.446593|   -5.446352|   -4.998166|   -6.215223|    3.351113|
|         124|  1.0706e+01|  5.5041e-20|  1.2412e-03|  5.0000e-04|  5.0000e-04|  5.0000e-04|   -4.805306|   -5.069182|   -5.446599|   -5.446358|   -4.998183|   -6.770721|    3.351108|
|         125|  1.0703e+01|  5.5109e-20|  1.2412e-03|  5.0000e-04|  5.0000e-04|  5.0000e-04|   -4.805320|   -5.069173|   -5.446606|   -5.446364|   -4.998199|   -6.765996|    3.351103|
|         126|  1.0699e+01|  5.5175e-20|  1.2412e-03|  5.0000e-04|  5.0000e-04|  5.0000e-04|   -4.805334|   -5.069163|   -5.446612|   -5.446371|   -4.998216|   -6.771129|    3.351098|
|         127|  1.0695e+01|  5.5238e-20|  1.2412e-03|  5.0000e-04|  5.0000e-04|  5.0000e-04|   -4.805348|   -5.069154|   -5.446618|   -5.446377|   -4.998232|   -6.494343|    3.351093|
|         128|  1.0691e+01|  5.5299e-20|  1.2412e-03|  5.0000e-04|  5.0000e-04|  5.0000e-04|   -4.805362|   -5.069145|   -5.446624|   -5.446383|   -4.998248|   -6.424585|    3.351088|
|         129|  1.0687e+01|  5.5357e-20|  1.2412e-03|  5.0000e-04|  5.0000e-04|  5.0000e-04|   -4.805376|   -5.069135|   -5.446631|   -5.446389|   -4.998265|   -6.539966|    3.351082|
|         130|  1.0682e+01|  6.7994e-20|  1.2412e-03|  5.0000e-04|  5.0000e-04|  5.0000e-04|   -4.805390|   -5.069126|   -5.446637|   -5.446396|   -4.998281|   -6.472228|    3.351077|
|         131|  1.0679e+01|  4.0421e-20|  1.2412e-03|  5.0000e-04|  5.0000e-04|  5.0000e-04|   -4.805404|   -5.069117|   -5.446643|   -5.446402|   -4.998297|   -6.602099|    3.351072|
|         132|  1.0675e+01|  6.0905e-20|  1.2412e-03|  5.0000e-04|  5.0000e-04|  5.0000e-04|   -4.805418|   -5.069108|   -5.446650|   -5.446408|   -4.998314|   -6.561741|    3.351067|
|         133|  1.0671e+01|  5.2851e-20|  1.2412e-03|  5.0000e-04|  5.0000e-04|  5.0000e-04|   -4.805432|   -5.069098|   -5.446656|   -5.446414|   -4.998330|   -6.615380|    3.351062|
|         134|  1.0667e+01|  5.9486e-20|  1.2412e-03|  5.0000e-04|  5.0000e-04|  5.0000e-04|   -4.805446|   -5.069089|   -5.446662|   -5.446421|   -4.998347|   -6.585728|    3.351057|
|         135|  1.0664e+01|  5.8599e-20|  1.2412e-03|  5.0000e-04|  5.0000e-04|  5.0000e-04|   -4.805460|   -5.069080|   -5.446668|   -5.446427|   -4.998363|   -6.629636|    3.351052|
|         136|  1.0659e+01|  6.0268e-20|  1.2412e-03|  5.0000e-04|  5.0000e-04|  5.0000e-04|   -4.805474|   -5.069070|   -5.446675|   -5.446433|   -4.998379|   -6.604326|    3.351047|
|         137|  1.0655e+01|  6.0702e-20|  1.2412e-03|  5.0000e-04|  5.0000e-04|  5.0000e-04|   -4.805488|   -5.069061|   -5.446681|   -5.446440|   -4.998396|   -6.643629|    3.351041|
|         138|  1.0651e+01|  6.1743e-20|  1.2412e-03|  5.0000e-04|  5.0000e-04|  5.0000e-04|   -4.805502|   -5.069052|   -5.446687|   -5.446446|   -4.998412|   -6.626024|    3.351036|
|         139|  1.0647e+01|  6.2533e-20|  1.2412e-03|  5.0000e-04|  5.0000e-04|  5.0000e-04|   -4.805516|   -5.069043|   -5.446694|   -5.446452|   -4.998429|   -6.658832|    3.351031|
|         140|  1.0643e+01|  6.3452e-20|  1.2412e-03|  5.0000e-04|  5.0000e-04|  5.0000e-04|   -4.805530|   -5.069033|   -5.446700|   -5.446458|   -4.998445|   -6.644377|    3.351026|
|         141|  1.0640e+01|  6.4339e-20|  1.2412e-03|  5.0000e-04|  5.0000e-04|  5.0000e-04|   -4.805544|   -5.069024|   -5.446706|   -5.446465|   -4.998462|   -6.669961|    3.351021|
|         142|  1.0636e+01|  6.5260e-20|  1.2412e-03|  5.0000e-04|  5.0000e-04|  5.0000e-04|   -4.805558|   -5.069015|   -5.446713|   -5.446471|   -4.998478|   -6.661834|    3.351016|
|         143|  1.0633e+01|  6.6187e-20|  1.2412e-03|  5.0000e-04|  5.0000e-04|  5.0000e-04|   -4.805572|   -5.069005|   -5.446719|   -5.446477|   -4.998494|   -6.681830|    3.351011|
|         144|  1.0629e+01|  6.7131e-20|  1.2412e-03|  5.0000e-04|  5.0000e-04|  5.0000e-04|   -4.805586|   -5.068996|   -5.446725|   -5.446484|   -4.998511|   -6.675936|    3.351006|
|         145|  1.0626e+01|  6.8088e-20|  1.2412e-03|  5.0000e-04|  5.0000e-04|  5.0000e-04|   -4.805600|   -5.068987|   -5.446732|   -5.446490|   -4.998527|   -6.690036|    3.351001|
|         146|  1.0623e+01|  6.9059e-20|  1.2412e-03|  5.0000e-04|  5.0000e-04|  5.0000e-04|   -4.805614|   -5.068978|   -5.446738|   -5.446496|   -4.998544|   -6.687588|    3.350996|
|         147|  1.0619e+01|  7.0042e-20|  1.2412e-03|  5.0000e-04|  5.0000e-04|  5.0000e-04|   -4.805628|   -5.068968|   -5.446744|   -5.446503|   -4.998560|   -6.697146|    3.350991|
|         148|  1.0616e+01|  7.1038e-20|  1.2412e-03|  5.0000e-04|  5.0000e-04|  5.0000e-04|   -4.805642|   -5.068959|   -5.446751|   -5.446509|   -4.998577|   -6.698504|    3.350986|
|         149|  1.0613e+01|  7.2045e-20|  1.2412e-03|  5.0000e-04|  5.0000e-04|  5.0000e-04|   -4.805657|   -5.068950|   -5.446757|   -5.446515|   -4.998593|   -6.703813|    3.350981|
|         150|  1.0609e+01|  7.3064e-20|  1.2412e-03|  5.0000e-04|  5.0000e-04|  5.0000e-04|   -4.805671|   -5.068941|   -5.446763|   -5.446522|   -4.998610|   -6.706801|    3.350976|
+-----------------------------------------------------------------------+
|        File Writing Summary       |              Filename             |
+-----------------------------------------------------------------------+
|SU2 binary restart                 |restart_flow.dat                   |
|Paraview                           |flow.vtu                           |
|Paraview surface                   |surface_flow.vtu                   |
+-----------------------------------------------------------------------+
+-------------------------------------------------------------------------------------------------------------------------------------------------------------------------------------+
|  Inner_Iter|   Time(sec)|      Min DT|      Max DT|     Min CFL|     Max CFL|     Avg CFL|    rms[Rho]|   rms[RhoU]|   rms[RhoV]|   rms[RhoW]|   rms[RhoE]|     rms[nu]|          CD|
+-------------------------------------------------------------------------------------------------------------------------------------------------------------------------------------+
|         151|  1.0715e+01|  7.4094e-20|  1.2412e-03|  5.0000e-04|  5.0000e-04|  5.0000e-04|   -4.805685|   -5.068931|   -5.446770|   -5.446528|   -4.998626|   -6.707775|    3.350971|
|         152|  1.0714e+01|  7.5135e-20|  1.2412e-03|  5.0000e-04|  5.0000e-04|  5.0000e-04|   -4.805699|   -5.068922|   -5.446776|   -5.446534|   -4.998643|   -6.713792|    3.350966|
|         153|  1.0712e+01|  7.6184e-20|  1.2412e-03|  5.0000e-04|  5.0000e-04|  5.0000e-04|   -4.805713|   -5.068913|   -5.446782|   -5.446541|   -4.998659|   -6.712776|    3.350961|
|         154|  1.0708e+01|  7.7244e-20|  1.2412e-03|  5.0000e-04|  5.0000e-04|  5.0000e-04|   -4.805727|   -5.068904|   -5.446789|   -5.446547|   -4.998676|   -6.720917|    3.350956|
|         155|  1.0705e+01|  7.8311e-20|  1.2412e-03|  5.0000e-04|  5.0000e-04|  5.0000e-04|   -4.805741|   -5.068894|   -5.446795|   -5.446554|   -4.998692|   -6.715174|    3.350951|
|         156|  1.0702e+01|  7.9386e-20|  1.2412e-03|  5.0000e-04|  5.0000e-04|  5.0000e-04|   -4.805755|   -5.068885|   -5.446802|   -5.446560|   -4.998709|   -6.725361|    3.350946|
|         157|  1.0698e+01|  8.0469e-20|  1.2412e-03|  5.0000e-04|  5.0000e-04|  5.0000e-04|   -4.805769|   -5.068876|   -5.446808|   -5.446566|   -4.998725|   -6.718590|    3.350941|
|         158|  1.0694e+01|  8.1558e-20|  1.2412e-03|  5.0000e-04|  5.0000e-04|  5.0000e-04|   -4.805784|   -5.068866|   -5.446814|   -5.446573|   -4.998742|   -6.731044|    3.350936|
|         159|  1.0690e+01|  8.2652e-20|  1.2412e-03|  5.0000e-04|  5.0000e-04|  5.0000e-04|   -4.805798|   -5.068857|   -5.446821|   -5.446579|   -4.998758|   -6.726070|    3.350931|
|         160|  1.0685e+01|  8.3752e-20|  1.2412e-03|  5.0000e-04|  5.0000e-04|  5.0000e-04|   -4.805812|   -5.068848|   -5.446827|   -5.446585|   -4.998775|   -6.737475|    3.350926|
|         161|  1.0681e+01|  8.4855e-20|  1.2412e-03|  5.0000e-04|  5.0000e-04|  5.0000e-04|   -4.805826|   -5.068839|   -5.446834|   -5.446592|   -4.998791|   -6.730285|    3.350921|
|         162|  1.0676e+01|  8.5962e-20|  1.2412e-03|  5.0000e-04|  5.0000e-04|  5.0000e-04|   -4.805840|   -5.068829|   -5.446840|   -5.446598|   -4.998808|   -6.742069|    3.350916|
|         163|  1.0672e+01|  8.7071e-20|  1.2412e-03|  5.0000e-04|  5.0000e-04|  5.0000e-04|   -4.805854|   -5.068820|   -5.446846|   -5.446605|   -4.998825|   -6.734486|    3.350911|
|         164|  1.0667e+01|  8.8182e-20|  1.2412e-03|  5.0000e-04|  5.0000e-04|  5.0000e-04|   -4.805869|   -5.068811|   -5.446853|   -5.446611|   -4.998841|   -6.747332|    3.350906|
|         165|  1.0663e+01|  8.9294e-20|  1.2412e-03|  5.0000e-04|  5.0000e-04|  5.0000e-04|   -4.805883|   -5.068802|   -5.446859|   -5.446617|   -4.998858|   -6.731194|    3.350901|
|         166|  1.0659e+01|  9.0406e-20|  1.2412e-03|  5.0000e-04|  5.0000e-04|  5.0000e-04|   -4.805897|   -5.068792|   -5.446866|   -5.446624|   -4.998874|   -6.749275|    3.350896|
|         167|  1.0655e+01|  9.1517e-20|  1.2412e-03|  5.0000e-04|  5.0000e-04|  5.0000e-04|   -4.805911|   -5.068783|   -5.446872|   -5.446630|   -4.998891|   -6.706881|    3.350891|
|         168|  1.0651e+01|  9.2627e-20|  1.2412e-03|  5.0000e-04|  5.0000e-04|  5.0000e-04|   -4.805925|   -5.068774|   -5.446878|   -5.446637|   -4.998907|   -6.752289|    3.350887|
|         169|  1.0647e+01|  9.3734e-20|  1.2412e-03|  5.0000e-04|  5.0000e-04|  5.0000e-04|   -4.805939|   -5.068765|   -5.446885|   -5.446643|   -4.998924|   -6.733314|    3.350882|
|         170|  1.0643e+01|  9.4838e-20|  1.2412e-03|  5.0000e-04|  5.0000e-04|  5.0000e-04|   -4.805954|   -5.068755|   -5.446891|   -5.446649|   -4.998941|   -6.764170|    3.350877|
|         171|  1.0639e+01|  9.5937e-20|  1.2412e-03|  5.0000e-04|  5.0000e-04|  5.0000e-04|   -4.805968|   -5.068746|   -5.446898|   -5.446656|   -4.998957|   -6.599124|    3.350872|
|         172|  1.0635e+01|  9.7032e-20|  1.2412e-03|  5.0000e-04|  5.0000e-04|  5.0000e-04|   -4.805982|   -5.068737|   -5.446904|   -5.446662|   -4.998974|   -6.760994|    3.350867|
|         173|  1.0630e+01|  9.8120e-20|  1.2412e-03|  5.0000e-04|  5.0000e-04|  5.0000e-04|   -4.805996|   -5.068728|   -5.446911|   -5.446669|   -4.998990|   -6.757766|    3.350862|
|         174|  1.0625e+01|  9.9203e-20|  1.2412e-03|  5.0000e-04|  5.0000e-04|  5.0000e-04|   -4.806011|   -5.068718|   -5.446917|   -5.446675|   -4.999007|   -6.768190|    3.350857|
|         175|  1.0621e+01|  1.0028e-19|  1.2412e-03|  5.0000e-04|  5.0000e-04|  5.0000e-04|   -4.806025|   -5.068709|   -5.446923|   -5.446681|   -4.999024|   -6.764256|    3.350852|
|         176|  1.0617e+01|  1.0134e-19|  1.2412e-03|  5.0000e-04|  5.0000e-04|  5.0000e-04|   -4.806039|   -5.068700|   -5.446930|   -5.446688|   -4.999040|   -6.774742|    3.350848|
|         177|  1.0613e+01|  1.0240e-19|  1.2412e-03|  5.0000e-04|  5.0000e-04|  5.0000e-04|   -4.806053|   -5.068691|   -5.446936|   -5.446694|   -4.999057|   -6.695993|    3.350843|
|         178|  1.0608e+01|  1.0345e-19|  1.2412e-03|  5.0000e-04|  5.0000e-04|  5.0000e-04|   -4.806068|   -5.068682|   -5.446943|   -5.446701|   -4.999074|   -6.724217|    3.350838|
|         179|  1.0605e+01|  1.0449e-19|  1.2412e-03|  5.0000e-04|  5.0000e-04|  5.0000e-04|   -4.806082|   -5.068672|   -5.446949|   -5.446707|   -4.999090|   -6.758837|    3.350833|
|         180|  1.0600e+01|  1.0551e-19|  1.2412e-03|  5.0000e-04|  5.0000e-04|  5.0000e-04|   -4.806096|   -5.068663|   -5.446956|   -5.446714|   -4.999107|   -6.779510|    3.350828|
|         181|  1.0597e+01|  1.0653e-19|  1.2412e-03|  5.0000e-04|  5.0000e-04|  5.0000e-04|   -4.806110|   -5.068654|   -5.446962|   -5.446720|   -4.999123|   -6.774964|    3.350823|
|         182|  1.0593e+01|  1.0753e-19|  1.2412e-03|  5.0000e-04|  5.0000e-04|  5.0000e-04|   -4.806125|   -5.068645|   -5.446969|   -5.446727|   -4.999140|   -6.779995|    3.350819|
|         183|  1.0589e+01|  1.0852e-19|  1.2412e-03|  5.0000e-04|  5.0000e-04|  5.0000e-04|   -4.806139|   -5.068635|   -5.446975|   -5.446733|   -4.999157|   -6.774224|    3.350814|
|         184|  1.0586e+01|  1.0950e-19|  1.2412e-03|  5.0000e-04|  5.0000e-04|  5.0000e-04|   -4.806153|   -5.068626|   -5.446982|   -5.446740|   -4.999173|   -6.779697|    3.350809|
|         185|  1.0582e+01|  1.1046e-19|  1.2412e-03|  5.0000e-04|  5.0000e-04|  5.0000e-04|   -4.806168|   -5.068617|   -5.446988|   -5.446746|   -4.999190|   -6.780322|    3.350804|
|         186|  1.0579e+01|  1.1141e-19|  1.2412e-03|  5.0000e-04|  5.0000e-04|  5.0000e-04|   -4.806182|   -5.068608|   -5.446995|   -5.446752|   -4.999207|   -6.783292|    3.350799|
|         187|  1.0575e+01|  1.1234e-19|  1.2412e-03|  5.0000e-04|  5.0000e-04|  5.0000e-04|   -4.806196|   -5.068598|   -5.447001|   -5.446759|   -4.999223|   -6.781773|    3.350795|
|         188|  1.0572e+01|  1.1325e-19|  1.2412e-03|  5.0000e-04|  5.0000e-04|  5.0000e-04|   -4.806211|   -5.068589|   -5.447008|   -5.446765|   -4.999240|   -6.784482|    3.350790|
|         189|  1.0568e+01|  1.1415e-19|  1.2412e-03|  5.0000e-04|  5.0000e-04|  5.0000e-04|   -4.806225|   -5.068580|   -5.447014|   -5.446772|   -4.999257|   -6.562944|    3.350785|
|         190|  1.0565e+01|  1.1504e-19|  1.2412e-03|  5.0000e-04|  5.0000e-04|  5.0000e-04|   -4.806239|   -5.068571|   -5.447021|   -5.446778|   -4.999274|   -6.785861|    3.350780|
|         191|  1.0562e+01|  1.1591e-19|  1.2412e-03|  5.0000e-04|  5.0000e-04|  5.0000e-04|   -4.806254|   -5.068562|   -5.447027|   -5.446785|   -4.999290|   -6.780275|    3.350776|
|         192|  1.0559e+01|  1.1676e-19|  1.2412e-03|  5.0000e-04|  5.0000e-04|  5.0000e-04|   -4.806268|   -5.068552|   -5.447034|   -5.446791|   -4.999307|   -6.786549|    3.350771|
|         193|  1.0555e+01|  1.1759e-19|  1.2412e-03|  5.0000e-04|  5.0000e-04|  5.0000e-04|   -4.806282|   -5.068543|   -5.447040|   -5.446798|   -4.999324|   -6.781610|    3.350766|
|         194|  1.0552e+01|  1.1841e-19|  1.2412e-03|  5.0000e-04|  5.0000e-04|  5.0000e-04|   -4.806297|   -5.068534|   -5.447047|   -5.446804|   -4.999340|   -6.786469|    3.350761|
|         195|  1.0549e+01|  1.1921e-19|  1.2412e-03|  5.0000e-04|  5.0000e-04|  5.0000e-04|   -4.806311|   -5.068525|   -5.447053|   -5.446811|   -4.999357|   -6.785877|    3.350757|
|         196|  1.0545e+01|  1.1999e-19|  1.2412e-03|  5.0000e-04|  5.0000e-04|  5.0000e-04|   -4.806325|   -5.068515|   -5.447060|   -5.446817|   -4.999374|   -6.783082|    3.350752|
|         197|  1.0542e+01|  1.2032e-19|  1.2412e-03|  5.0000e-04|  5.0000e-04|  5.0000e-04|   -4.806340|   -5.068506|   -5.447066|   -5.446824|   -4.999391|   -6.782864|    3.350747|
|         198|  1.0539e+01|  1.2032e-19|  1.2412e-03|  5.0000e-04|  5.0000e-04|  5.0000e-04|   -4.806354|   -5.068497|   -5.447073|   -5.446830|   -4.999407|   -6.786533|    3.350742|
|         199|  1.0535e+01|  1.2032e-19|  1.2412e-03|  5.0000e-04|  5.0000e-04|  5.0000e-04|   -4.806369|   -5.068488|   -5.447079|   -5.446837|   -4.999424|   -6.740634|    3.350738|
|         200|  1.0532e+01|  1.2032e-19|  1.2412e-03|  5.0000e-04|  5.0000e-04|  5.0000e-04|   -4.806383|   -5.068479|   -5.447086|   -5.446844|   -4.999441|   -6.785694|    3.350733|
|         201|  1.0529e+01|  1.2032e-19|  1.2412e-03|  5.0000e-04|  5.0000e-04|  5.0000e-04|   -4.806397|   -5.068469|   -5.447092|   -5.446850|   -4.999458|   -6.786887|    3.350728|
|         202|  1.0526e+01|  1.2032e-19|  1.2412e-03|  5.0000e-04|  5.0000e-04|  5.0000e-04|   -4.806412|   -5.068460|   -5.447099|   -5.446857|   -4.999474|   -6.784588|    3.350724|
|         203|  1.0523e+01|  1.2032e-19|  1.2412e-03|  5.0000e-04|  5.0000e-04|  5.0000e-04|   -4.806426|   -5.068451|   -5.447105|   -5.446863|   -4.999491|   -6.785532|    3.350719|
|         204|  1.0520e+01|  1.2032e-19|  1.2412e-03|  5.0000e-04|  5.0000e-04|  5.0000e-04|   -4.806441|   -5.068442|   -5.447112|   -5.446870|   -4.999508|   -6.787496|    3.350714|
|         205|  1.0517e+01|  1.2032e-19|  1.2412e-03|  5.0000e-04|  5.0000e-04|  5.0000e-04|   -4.806455|   -5.068432|   -5.447119|   -5.446876|   -4.999525|   -6.786567|    3.350710|
|         206|  1.0514e+01|  1.2032e-19|  1.2412e-03|  5.0000e-04|  5.0000e-04|  5.0000e-04|   -4.806469|   -5.068423|   -5.447125|   -5.446883|   -4.999542|   -6.787131|    3.350705|
|         207|  1.0512e+01|  1.2032e-19|  1.2412e-03|  5.0000e-04|  5.0000e-04|  5.0000e-04|   -4.806484|   -5.068414|   -5.447132|   -5.446889|   -4.999558|   -6.787118|    3.350700|
|         208|  1.0508e+01|  1.2032e-19|  1.2412e-03|  5.0000e-04|  5.0000e-04|  5.0000e-04|   -4.806498|   -5.068405|   -5.447138|   -5.446896|   -4.999575|   -6.785987|    3.350696|
|         209|  1.0506e+01|  1.2032e-19|  1.2412e-03|  5.0000e-04|  5.0000e-04|  5.0000e-04|   -4.806513|   -5.068396|   -5.447145|   -5.446902|   -4.999592|   -6.786854|    3.350691|
|         210|  1.0502e+01|  1.2032e-19|  1.2412e-03|  5.0000e-04|  5.0000e-04|  5.0000e-04|   -4.806527|   -5.068386|   -5.447151|   -5.446909|   -4.999609|   -6.773303|    3.350686|
|         211|  1.0500e+01|  1.2032e-19|  1.2412e-03|  5.0000e-04|  5.0000e-04|  5.0000e-04|   -4.806542|   -5.068377|   -5.447158|   -5.446916|   -4.999626|   -6.787524|    3.350682|
|         212|  1.0496e+01|  1.2032e-19|  1.2412e-03|  5.0000e-04|  5.0000e-04|  5.0000e-04|   -4.806556|   -5.068368|   -5.447165|   -5.446922|   -4.999642|   -6.788052|    3.350677|
|         213|  1.0493e+01|  1.2032e-19|  1.2412e-03|  5.0000e-04|  5.0000e-04|  5.0000e-04|   -4.806571|   -5.068359|   -5.447171|   -5.446929|   -4.999659|   -6.787901|    3.350673|
|         214|  1.0490e+01|  1.2032e-19|  1.2412e-03|  5.0000e-04|  5.0000e-04|  5.0000e-04|   -4.806585|   -5.068350|   -5.447178|   -5.446935|   -4.999676|   -6.788287|    3.350668|
|         215|  1.0487e+01|  1.2032e-19|  1.2412e-03|  5.0000e-04|  5.0000e-04|  5.0000e-04|   -4.806600|   -5.068340|   -5.447184|   -5.446942|   -4.999693|   -6.788317|    3.350663|
|         216|  1.0486e+01|  1.2032e-19|  1.2412e-03|  5.0000e-04|  5.0000e-04|  5.0000e-04|   -4.806614|   -5.068331|   -5.447191|   -5.446948|   -4.999710|   -6.768049|    3.350659|
|         217|  1.0485e+01|  1.2032e-19|  1.2412e-03|  5.0000e-04|  5.0000e-04|  5.0000e-04|   -4.806629|   -5.068322|   -5.447197|   -5.446955|   -4.999727|   -6.788747|    3.350654|
|         218|  1.0483e+01|  1.2032e-19|  1.2412e-03|  5.0000e-04|  5.0000e-04|  5.0000e-04|   -4.806643|   -5.068313|   -5.447204|   -5.446962|   -4.999743|   -6.786629|    3.350650|
|         219|  1.0480e+01|  1.2032e-19|  1.2412e-03|  5.0000e-04|  5.0000e-04|  5.0000e-04|   -4.806658|   -5.068304|   -5.447211|   -5.446968|   -4.999760|   -6.775008|    3.350645|
|         220|  1.0477e+01|  1.2032e-19|  1.2412e-03|  5.0000e-04|  5.0000e-04|  5.0000e-04|   -4.806672|   -5.068294|   -5.447217|   -5.446975|   -4.999777|   -6.789262|    3.350640|
|         221|  1.0474e+01|  1.2032e-19|  1.2412e-03|  5.0000e-04|  5.0000e-04|  5.0000e-04|   -4.806687|   -5.068285|   -5.447224|   -5.446981|   -4.999794|   -6.788674|    3.350636|
|         222|  1.0471e+01|  1.2032e-19|  1.2412e-03|  5.0000e-04|  5.0000e-04|  5.0000e-04|   -4.806701|   -5.068276|   -5.447231|   -5.446988|   -4.999811|   -6.789563|    3.350631|
|         223|  1.0469e+01|  1.2032e-19|  1.2412e-03|  5.0000e-04|  5.0000e-04|  5.0000e-04|   -4.806716|   -5.068267|   -5.447237|   -5.446995|   -4.999828|   -6.789263|    3.350627|
|         224|  1.0466e+01|  1.2032e-19|  1.2412e-03|  5.0000e-04|  5.0000e-04|  5.0000e-04|   -4.806730|   -5.068258|   -5.447244|   -5.447001|   -4.999845|   -6.787261|    3.350622|
|         225|  1.0463e+01|  1.2032e-19|  1.2412e-03|  5.0000e-04|  5.0000e-04|  5.0000e-04|   -4.806745|   -5.068249|   -5.447250|   -5.447008|   -4.999862|   -6.789441|    3.350618|
|         226|  1.0461e+01|  1.2032e-19|  1.2412e-03|  5.0000e-04|  5.0000e-04|  5.0000e-04|   -4.806759|   -5.068239|   -5.447257|   -5.447014|   -4.999879|   -6.790195|    3.350613|
|         227|  1.0458e+01|  1.2032e-19|  1.2412e-03|  5.0000e-04|  5.0000e-04|  5.0000e-04|   -4.806774|   -5.068230|   -5.447264|   -5.447021|   -4.999895|   -6.787424|    3.350609|
|         228|  1.0456e+01|  1.2032e-19|  1.2412e-03|  5.0000e-04|  5.0000e-04|  5.0000e-04|   -4.806788|   -5.068221|   -5.447270|   -5.447028|   -4.999912|   -6.790307|    3.350604|
|         229|  1.0455e+01|  1.2032e-19|  1.2412e-03|  5.0000e-04|  5.0000e-04|  5.0000e-04|   -4.806803|   -5.068212|   -5.447277|   -5.447034|   -4.999929|   -6.780100|    3.350600|
|         230|  1.0453e+01|  1.2032e-19|  1.2412e-03|  5.0000e-04|  5.0000e-04|  5.0000e-04|   -4.806818|   -5.068203|   -5.447284|   -5.447041|   -4.999946|   -6.790166|    3.350595|
|         231|  1.0451e+01|  1.2032e-19|  1.2412e-03|  5.0000e-04|  5.0000e-04|  5.0000e-04|   -4.806832|   -5.068193|   -5.447290|   -5.447048|   -4.999963|   -6.789027|    3.350590|
|         232|  1.0449e+01|  1.2032e-19|  1.2412e-03|  5.0000e-04|  5.0000e-04|  5.0000e-04|   -4.806847|   -5.068184|   -5.447297|   -5.447054|   -4.999980|   -6.790693|    3.350586|
|         233|  1.0446e+01|  1.2032e-19|  1.2412e-03|  5.0000e-04|  5.0000e-04|  5.0000e-04|   -4.806861|   -5.068175|   -5.447304|   -5.447061|   -4.999997|   -6.790277|    3.350582|
|         234|  1.0444e+01|  1.2032e-19|  1.2412e-03|  5.0000e-04|  5.0000e-04|  5.0000e-04|   -4.806876|   -5.068166|   -5.447310|   -5.447067|   -5.000014|   -6.791035|    3.350577|
|         235|  1.0442e+01|  1.2032e-19|  1.2412e-03|  5.0000e-04|  5.0000e-04|  5.0000e-04|   -4.806890|   -5.068157|   -5.447317|   -5.447074|   -5.000031|   -6.790989|    3.350573|
|         236|  1.0440e+01|  1.2032e-19|  1.2412e-03|  5.0000e-04|  5.0000e-04|  5.0000e-04|   -4.806905|   -5.068148|   -5.447324|   -5.447081|   -5.000048|   -6.791305|    3.350568|
|         237|  1.0437e+01|  1.2032e-19|  1.2412e-03|  5.0000e-04|  5.0000e-04|  5.0000e-04|   -4.806920|   -5.068138|   -5.447330|   -5.447087|   -5.000065|   -6.696920|    3.350564|
|         238|  1.0435e+01|  1.2032e-19|  1.2412e-03|  5.0000e-04|  5.0000e-04|  5.0000e-04|   -4.806934|   -5.068129|   -5.447337|   -5.447094|   -5.000082|   -6.645496|    3.350559|
|         239|  1.0432e+01|  1.2032e-19|  1.2412e-03|  5.0000e-04|  5.0000e-04|  5.0000e-04|   -4.806949|   -5.068120|   -5.447344|   -5.447101|   -5.000099|   -6.791443|    3.350555|
|         240|  1.0430e+01|  1.2032e-19|  1.2412e-03|  5.0000e-04|  5.0000e-04|  5.0000e-04|   -4.806964|   -5.068111|   -5.447350|   -5.447107|   -5.000116|   -6.791981|    3.350550|
|         241|  1.0429e+01|  1.2032e-19|  1.2412e-03|  5.0000e-04|  5.0000e-04|  5.0000e-04|   -4.806978|   -5.068102|   -5.447357|   -5.447114|   -5.000133|   -6.792072|    3.350546|
|         242|  1.0427e+01|  1.2032e-19|  1.2412e-03|  5.0000e-04|  5.0000e-04|  5.0000e-04|   -4.806993|   -5.068092|   -5.447364|   -5.447121|   -5.000150|   -6.725788|    3.350541|
|         243|  1.0425e+01|  1.2032e-19|  1.2412e-03|  5.0000e-04|  5.0000e-04|  5.0000e-04|   -4.807007|   -5.068083|   -5.447370|   -5.447127|   -5.000167|   -6.792302|    3.350537|
|         244|  1.0423e+01|  1.2032e-19|  1.2412e-03|  5.0000e-04|  5.0000e-04|  5.0000e-04|   -4.807022|   -5.068074|   -5.447377|   -5.447134|   -5.000184|   -6.792454|    3.350533|
|         245|  1.0420e+01|  1.2032e-19|  1.2412e-03|  5.0000e-04|  5.0000e-04|  5.0000e-04|   -4.807037|   -5.068065|   -5.447384|   -5.447141|   -5.000201|   -6.776574|    3.350528|
|         246|  1.0418e+01|  1.2032e-19|  1.2412e-03|  5.0000e-04|  5.0000e-04|  5.0000e-04|   -4.807051|   -5.068056|   -5.447390|   -5.447148|   -5.000218|   -6.792764|    3.350524|
|         247|  1.0416e+01|  1.2032e-19|  1.2412e-03|  5.0000e-04|  5.0000e-04|  5.0000e-04|   -4.807066|   -5.068047|   -5.447397|   -5.447154|   -5.000235|   -6.792735|    3.350519|
|         248|  1.0414e+01|  1.2032e-19|  1.2412e-03|  5.0000e-04|  5.0000e-04|  5.0000e-04|   -4.807081|   -5.068038|   -5.447404|   -5.447161|   -5.000252|   -6.734564|    3.350515|
|         249|  1.0412e+01|  1.2032e-19|  1.2412e-03|  5.0000e-04|  5.0000e-04|  5.0000e-04|   -4.807096|   -5.068028|   -5.447411|   -5.447168|   -5.000269|   -6.792496|    3.350511|
|         250|  1.0410e+01|  1.2032e-19|  1.2412e-03|  5.0000e-04|  5.0000e-04|  5.0000e-04|   -4.807110|   -5.068019|   -5.447417|   -5.447174|   -5.000286|   -6.793274|    3.350506|
|         251|  1.0407e+01|  1.2032e-19|  1.2412e-03|  5.0000e-04|  5.0000e-04|  5.0000e-04|   -4.807125|   -5.068010|   -5.447424|   -5.447181|   -5.000303|   -6.786803|    3.350502|
|         252|  1.0406e+01|  1.2032e-19|  1.2412e-03|  5.0000e-04|  5.0000e-04|  5.0000e-04|   -4.807140|   -5.068001|   -5.447431|   -5.447188|   -5.000320|   -6.785594|    3.350497|
|         253|  1.0404e+01|  1.2032e-19|  1.2412e-03|  5.0000e-04|  5.0000e-04|  5.0000e-04|   -4.807154|   -5.067992|   -5.447437|   -5.447194|   -5.000337|   -6.788391|    3.350493|
|         254|  1.0403e+01|  1.2032e-19|  1.2412e-03|  5.0000e-04|  5.0000e-04|  5.0000e-04|   -4.807169|   -5.067983|   -5.447444|   -5.447201|   -5.000354|   -6.792338|    3.350489|
|         255|  1.0401e+01|  1.2032e-19|  1.2412e-03|  5.0000e-04|  5.0000e-04|  5.0000e-04|   -4.807184|   -5.067973|   -5.447451|   -5.447208|   -5.000371|   -6.792381|    3.350484|
|         256|  1.0399e+01|  1.2032e-19|  1.2412e-03|  5.0000e-04|  5.0000e-04|  5.0000e-04|   -4.807198|   -5.067964|   -5.447458|   -5.447215|   -5.000388|   -6.792297|    3.350480|
|         257|  1.0397e+01|  1.2032e-19|  1.2412e-03|  5.0000e-04|  5.0000e-04|  5.0000e-04|   -4.807213|   -5.067955|   -5.447464|   -5.447221|   -5.000405|   -6.792993|    3.350476|
|         258|  1.0395e+01|  1.2032e-19|  1.2412e-03|  5.0000e-04|  5.0000e-04|  5.0000e-04|   -4.807228|   -5.067946|   -5.447471|   -5.447228|   -5.000422|   -6.774021|    3.350471|
|         259|  1.0393e+01|  1.2032e-19|  1.2412e-03|  5.0000e-04|  5.0000e-04|  5.0000e-04|   -4.807243|   -5.067937|   -5.447478|   -5.447235|   -5.000439|   -6.793937|    3.350467|
|         260|  1.0391e+01|  1.2032e-19|  1.2412e-03|  5.0000e-04|  5.0000e-04|  5.0000e-04|   -4.807257|   -5.067928|   -5.447485|   -5.447242|   -5.000456|   -6.794472|    3.350463|
|         261|  1.0388e+01|  1.2032e-19|  1.2412e-03|  5.0000e-04|  5.0000e-04|  5.0000e-04|   -4.807272|   -5.067918|   -5.447491|   -5.447248|   -5.000473|   -6.794464|    3.350458|
|         262|  1.0386e+01|  1.2032e-19|  1.2412e-03|  5.0000e-04|  5.0000e-04|  5.0000e-04|   -4.807287|   -5.067909|   -5.447498|   -5.447255|   -5.000491|   -6.794862|    3.350454|
|         263|  1.0383e+01|  1.2032e-19|  1.2412e-03|  5.0000e-04|  5.0000e-04|  5.0000e-04|   -4.807302|   -5.067900|   -5.447505|   -5.447262|   -5.000508|   -6.794774|    3.350450|
|         264|  1.0382e+01|  1.2032e-19|  1.2412e-03|  5.0000e-04|  5.0000e-04|  5.0000e-04|   -4.807317|   -5.067891|   -5.447512|   -5.447269|   -5.000525|   -6.795400|    3.350445|
|         265|  1.0380e+01|  1.2032e-19|  1.2412e-03|  5.0000e-04|  5.0000e-04|  5.0000e-04|   -4.807331|   -5.067882|   -5.447519|   -5.447275|   -5.000542|   -6.795277|    3.350441|
|         266|  1.0378e+01|  1.2032e-19|  1.2412e-03|  5.0000e-04|  5.0000e-04|  5.0000e-04|   -4.807346|   -5.067873|   -5.447525|   -5.447282|   -5.000559|   -6.795582|    3.350437|
|         267|  1.0376e+01|  1.2032e-19|  1.2412e-03|  5.0000e-04|  5.0000e-04|  5.0000e-04|   -4.807361|   -5.067864|   -5.447532|   -5.447289|   -5.000576|   -6.795583|    3.350433|
|         268|  1.0373e+01|  1.2032e-19|  1.2412e-03|  5.0000e-04|  5.0000e-04|  5.0000e-04|   -4.807376|   -5.067854|   -5.447539|   -5.447296|   -5.000593|   -6.795595|    3.350428|
|         269|  1.0370e+01|  1.2032e-19|  1.2412e-03|  5.0000e-04|  5.0000e-04|  5.0000e-04|   -4.807390|   -5.067845|   -5.447546|   -5.447302|   -5.000610|   -6.796397|    3.350424|
|         270|  1.0366e+01|  1.2032e-19|  1.2412e-03|  5.0000e-04|  5.0000e-04|  5.0000e-04|   -4.807405|   -5.067836|   -5.447552|   -5.447309|   -5.000628|   -6.796119|    3.350420|
|         271|  1.0362e+01|  1.2032e-19|  1.2412e-03|  5.0000e-04|  5.0000e-04|  5.0000e-04|   -4.807420|   -5.067827|   -5.447559|   -5.447316|   -5.000645|   -6.795999|    3.350416|
|         272|  1.0358e+01|  1.2032e-19|  1.2412e-03|  5.0000e-04|  5.0000e-04|  5.0000e-04|   -4.807435|   -5.067818|   -5.447566|   -5.447323|   -5.000662|   -6.796534|    3.350411|
|         273|  1.0354e+01|  1.2032e-19|  1.2412e-03|  5.0000e-04|  5.0000e-04|  5.0000e-04|   -4.807450|   -5.067809|   -5.447573|   -5.447330|   -5.000679|   -6.796421|    3.350407|
|         274|  1.0350e+01|  1.2032e-19|  1.2412e-03|  5.0000e-04|  5.0000e-04|  5.0000e-04|   -4.807465|   -5.067800|   -5.447580|   -5.447336|   -5.000696|   -6.796687|    3.350403|
|         275|  1.0346e+01|  1.2032e-19|  1.2412e-03|  5.0000e-04|  5.0000e-04|  5.0000e-04|   -4.807479|   -5.067791|   -5.447586|   -5.447343|   -5.000713|   -6.796733|    3.350399|
|         276|  1.0342e+01|  1.2032e-19|  1.2412e-03|  5.0000e-04|  5.0000e-04|  5.0000e-04|   -4.807494|   -5.067781|   -5.447593|   -5.447350|   -5.000730|   -6.796943|    3.350394|
|         277|  1.0337e+01|  1.2032e-19|  1.2412e-03|  5.0000e-04|  5.0000e-04|  5.0000e-04|   -4.807509|   -5.067772|   -5.447600|   -5.447357|   -5.000748|   -6.797038|    3.350390|
|         278|  1.0334e+01|  1.2032e-19|  1.2412e-03|  5.0000e-04|  5.0000e-04|  5.0000e-04|   -4.807524|   -5.067763|   -5.447607|   -5.447364|   -5.000765|   -6.797208|    3.350386|
|         279|  1.0330e+01|  1.2032e-19|  1.2412e-03|  5.0000e-04|  5.0000e-04|  5.0000e-04|   -4.807539|   -5.067754|   -5.447614|   -5.447370|   -5.000782|   -6.797335|    3.350382|
|         280|  1.0326e+01|  1.2032e-19|  1.2412e-03|  5.0000e-04|  5.0000e-04|  5.0000e-04|   -4.807554|   -5.067745|   -5.447621|   -5.447377|   -5.000799|   -6.797389|    3.350378|
|         281|  1.0322e+01|  1.2032e-19|  1.2412e-03|  5.0000e-04|  5.0000e-04|  5.0000e-04|   -4.807569|   -5.067736|   -5.447627|   -5.447384|   -5.000816|   -6.797669|    3.350374|
|         282|  1.0317e+01|  1.2032e-19|  1.2412e-03|  5.0000e-04|  5.0000e-04|  5.0000e-04|   -4.807583|   -5.067727|   -5.447634|   -5.447391|   -5.000834|   -6.797739|    3.350369|
|         283|  1.0313e+01|  1.2032e-19|  1.2412e-03|  5.0000e-04|  5.0000e-04|  5.0000e-04|   -4.807598|   -5.067718|   -5.447641|   -5.447398|   -5.000851|   -6.797840|    3.350365|
|         284|  1.0309e+01|  1.2032e-19|  1.2412e-03|  5.0000e-04|  5.0000e-04|  5.0000e-04|   -4.807613|   -5.067708|   -5.447648|   -5.447404|   -5.000868|   -6.798043|    3.350361|
|         285|  1.0305e+01|  1.2032e-19|  1.2412e-03|  5.0000e-04|  5.0000e-04|  5.0000e-04|   -4.807628|   -5.067699|   -5.447655|   -5.447411|   -5.000885|   -6.494878|    3.350357|
|         286|  1.0302e+01|  1.2032e-19|  1.2412e-03|  5.0000e-04|  5.0000e-04|  5.0000e-04|   -4.807643|   -5.067690|   -5.447662|   -5.447418|   -5.000903|   -6.798309|    3.350353|
|         287|  1.0297e+01|  1.2032e-19|  1.2412e-03|  5.0000e-04|  5.0000e-04|  5.0000e-04|   -4.807658|   -5.067681|   -5.447668|   -5.447425|   -5.000920|   -6.798346|    3.350349|
|         288|  1.0293e+01|  1.2032e-19|  1.2412e-03|  5.0000e-04|  5.0000e-04|  5.0000e-04|   -4.807673|   -5.067672|   -5.447675|   -5.447432|   -5.000937|   -6.709055|    3.350344|
|         289|  1.0289e+01|  1.2032e-19|  1.2412e-03|  5.0000e-04|  5.0000e-04|  5.0000e-04|   -4.807688|   -5.067663|   -5.447682|   -5.447439|   -5.000954|   -6.797471|    3.350340|
|         290|  1.0285e+01|  1.2032e-19|  1.2412e-03|  5.0000e-04|  5.0000e-04|  5.0000e-04|   -4.807703|   -5.067654|   -5.447689|   -5.447445|   -5.000971|   -6.798258|    3.350336|
|         291|  1.0282e+01|  1.2032e-19|  1.2412e-03|  5.0000e-04|  5.0000e-04|  5.0000e-04|   -4.807718|   -5.067645|   -5.447696|   -5.447452|   -5.000989|   -6.798711|    3.350332|
|         292|  1.0278e+01|  1.2032e-19|  1.2412e-03|  5.0000e-04|  5.0000e-04|  5.0000e-04|   -4.807733|   -5.067635|   -5.447703|   -5.447459|   -5.001006|   -6.798864|    3.350328|
|         293|  1.0274e+01|  1.2032e-19|  1.2412e-03|  5.0000e-04|  5.0000e-04|  5.0000e-04|   -4.807748|   -5.067626|   -5.447710|   -5.447466|   -5.001023|   -6.798896|    3.350324|
|         294|  1.0270e+01|  1.2032e-19|  1.2412e-03|  5.0000e-04|  5.0000e-04|  5.0000e-04|   -4.807762|   -5.067617|   -5.447716|   -5.447473|   -5.001041|   -6.799049|    3.350320|
|         295|  1.0266e+01|  1.2032e-19|  1.2412e-03|  5.0000e-04|  5.0000e-04|  5.0000e-04|   -4.807777|   -5.067608|   -5.447723|   -5.447480|   -5.001058|   -6.799123|    3.350316|
|         296|  1.0263e+01|  1.2032e-19|  1.2412e-03|  5.0000e-04|  5.0000e-04|  5.0000e-04|   -4.807792|   -5.067599|   -5.447730|   -5.447487|   -5.001075|   -6.799228|    3.350312|
|         297|  1.0260e+01|  1.2032e-19|  1.2412e-03|  5.0000e-04|  5.0000e-04|  5.0000e-04|   -4.807807|   -5.067590|   -5.447737|   -5.447494|   -5.001092|   -6.799321|    3.350307|
|         298|  1.0256e+01|  1.2032e-19|  1.2412e-03|  5.0000e-04|  5.0000e-04|  5.0000e-04|   -4.807822|   -5.067581|   -5.447744|   -5.447500|   -5.001110|   -6.799424|    3.350303|
|         299|  1.0252e+01|  1.2032e-19|  1.2412e-03|  5.0000e-04|  5.0000e-04|  5.0000e-04|   -4.807837|   -5.067572|   -5.447751|   -5.447507|   -5.001127|   -6.799497|    3.350299|
|         300|  1.0249e+01|  1.2032e-19|  1.2412e-03|  5.0000e-04|  5.0000e-04|  5.0000e-04|   -4.807852|   -5.067563|   -5.447758|   -5.447514|   -5.001144|   -6.799506|    3.350295|
+-----------------------------------------------------------------------+
|        File Writing Summary       |              Filename             |
+-----------------------------------------------------------------------+
|SU2 binary restart                 |restart_flow.dat                   |
|Paraview                           |flow.vtu                           |
|Paraview surface                   |surface_flow.vtu                   |
+-----------------------------------------------------------------------+
+-------------------------------------------------------------------------------------------------------------------------------------------------------------------------------------+
|  Inner_Iter|   Time(sec)|      Min DT|      Max DT|     Min CFL|     Max CFL|     Avg CFL|    rms[Rho]|   rms[RhoU]|   rms[RhoV]|   rms[RhoW]|   rms[RhoE]|     rms[nu]|          CD|
+-------------------------------------------------------------------------------------------------------------------------------------------------------------------------------------+
|         301|  1.0294e+01|  1.2032e-19|  1.2412e-03|  5.0000e-04|  5.0000e-04|  5.0000e-04|   -4.807867|   -5.067553|   -5.447765|   -5.447521|   -5.001162|   -6.505058|    3.350291|
|         302|  1.0293e+01|  1.2032e-19|  1.2412e-03|  5.0000e-04|  5.0000e-04|  5.0000e-04|   -4.807882|   -5.067544|   -5.447772|   -5.447528|   -5.001179|   -6.799777|    3.350287|
|         303|  1.0291e+01|  1.2032e-19|  1.2412e-03|  5.0000e-04|  5.0000e-04|  5.0000e-04|   -4.807897|   -5.067535|   -5.447779|   -5.447535|   -5.001196|   -6.770865|    3.350283|
|         304|  1.0289e+01|  1.2032e-19|  1.2412e-03|  5.0000e-04|  5.0000e-04|  5.0000e-04|   -4.807912|   -5.067526|   -5.447785|   -5.447542|   -5.001214|   -6.799928|    3.350279|
|         305|  1.0286e+01|  1.2032e-19|  1.2412e-03|  5.0000e-04|  5.0000e-04|  5.0000e-04|   -4.807927|   -5.067517|   -5.447792|   -5.447549|   -5.001231|   -6.380327|    3.350275|
|         306|  1.0283e+01|  1.2032e-19|  1.2412e-03|  5.0000e-04|  5.0000e-04|  5.0000e-04|   -4.807942|   -5.067508|   -5.447799|   -5.447556|   -5.001248|   -6.800156|    3.350271|
|         307|  1.0280e+01|  1.2032e-19|  1.2412e-03|  5.0000e-04|  5.0000e-04|  5.0000e-04|   -4.807957|   -5.067499|   -5.447806|   -5.447562|   -5.001266|   -6.795947|    3.350267|
|         308|  1.0277e+01|  1.2032e-19|  1.2412e-03|  5.0000e-04|  5.0000e-04|  5.0000e-04|   -4.807972|   -5.067490|   -5.447813|   -5.447569|   -5.001283|   -6.800331|    3.350263|
|         309|  1.0273e+01|  1.2032e-19|  1.2412e-03|  5.0000e-04|  5.0000e-04|  5.0000e-04|   -4.807987|   -5.067481|   -5.447820|   -5.447576|   -5.001300|   -6.800619|    3.350259|
|         310|  1.0270e+01|  1.2032e-19|  1.2412e-03|  5.0000e-04|  5.0000e-04|  5.0000e-04|   -4.808003|   -5.067472|   -5.447827|   -5.447583|   -5.001318|   -5.887758|    3.350255|
|         311|  1.0267e+01|  1.2032e-19|  1.2412e-03|  5.0000e-04|  5.0000e-04|  5.0000e-04|   -4.808018|   -5.067463|   -5.447834|   -5.447590|   -5.001335|   -6.800745|    3.350251|
|         312|  1.0263e+01|  1.2032e-19|  1.2412e-03|  5.0000e-04|  5.0000e-04|  5.0000e-04|   -4.808033|   -5.067453|   -5.447841|   -5.447597|   -5.001352|   -6.801203|    3.350247|
|         313|  1.0260e+01|  1.2032e-19|  1.2412e-03|  5.0000e-04|  5.0000e-04|  5.0000e-04|   -4.808048|   -5.067444|   -5.447848|   -5.447604|   -5.001370|   -6.799348|    3.350243|
|         314|  1.0257e+01|  1.2032e-19|  1.2412e-03|  5.0000e-04|  5.0000e-04|  5.0000e-04|   -4.808063|   -5.067435|   -5.447855|   -5.447611|   -5.001387|   -6.801034|    3.350239|
|         315|  1.0253e+01|  1.2032e-19|  1.2412e-03|  5.0000e-04|  5.0000e-04|  5.0000e-04|   -4.808078|   -5.067426|   -5.447862|   -5.447618|   -5.001405|   -6.752510|    3.350235|
|         316|  1.0250e+01|  1.2032e-19|  1.2412e-03|  5.0000e-04|  5.0000e-04|  5.0000e-04|   -4.808093|   -5.067417|   -5.447869|   -5.447625|   -5.001422|   -6.801260|    3.350231|
|         317|  1.0247e+01|  1.2032e-19|  1.2412e-03|  5.0000e-04|  5.0000e-04|  5.0000e-04|   -4.808108|   -5.067408|   -5.447876|   -5.447632|   -5.001439|   -6.801474|    3.350227|
|         318|  1.0243e+01|  1.2032e-19|  1.2412e-03|  5.0000e-04|  5.0000e-04|  5.0000e-04|   -4.808123|   -5.067399|   -5.447883|   -5.447639|   -5.001457|   -6.801588|    3.350223|
|         319|  1.0240e+01|  1.2032e-19|  1.2412e-03|  5.0000e-04|  5.0000e-04|  5.0000e-04|   -4.808138|   -5.067390|   -5.447890|   -5.447646|   -5.001474|   -6.802106|    3.350219|
|         320|  1.0237e+01|  1.2032e-19|  1.2412e-03|  5.0000e-04|  5.0000e-04|  5.0000e-04|   -4.808153|   -5.067381|   -5.447897|   -5.447653|   -5.001492|   -6.684746|    3.350215|
|         321|  1.0234e+01|  1.2032e-19|  1.2412e-03|  5.0000e-04|  5.0000e-04|  5.0000e-04|   -4.808168|   -5.067372|   -5.447904|   -5.447660|   -5.001509|   -6.801999|    3.350211|
|         322|  1.0230e+01|  1.2032e-19|  1.2412e-03|  5.0000e-04|  5.0000e-04|  5.0000e-04|   -4.808183|   -5.067363|   -5.447910|   -5.447667|   -5.001526|   -6.802239|    3.350207|
|         323|  1.0227e+01|  1.2032e-19|  1.2412e-03|  5.0000e-04|  5.0000e-04|  5.0000e-04|   -4.808199|   -5.067354|   -5.447917|   -5.447673|   -5.001544|   -6.802488|    3.350204|
|         324|  1.0223e+01|  1.2032e-19|  1.2412e-03|  5.0000e-04|  5.0000e-04|  5.0000e-04|   -4.808214|   -5.067344|   -5.447924|   -5.447680|   -5.001561|   -6.802361|    3.350200|
|         325|  1.0220e+01|  1.2032e-19|  1.2412e-03|  5.0000e-04|  5.0000e-04|  5.0000e-04|   -4.808229|   -5.067335|   -5.447931|   -5.447687|   -5.001579|   -6.802504|    3.350196|
|         326|  1.0217e+01|  1.2032e-19|  1.2412e-03|  5.0000e-04|  5.0000e-04|  5.0000e-04|   -4.808244|   -5.067326|   -5.447938|   -5.447694|   -5.001596|   -5.402301|    3.350192|
|         327|  1.0214e+01|  1.2032e-19|  1.2412e-03|  5.0000e-04|  5.0000e-04|  5.0000e-04|   -4.808259|   -5.067317|   -5.447945|   -5.447701|   -5.001614|   -6.802398|    3.350188|
|         328|  1.0211e+01|  1.2032e-19|  1.2412e-03|  5.0000e-04|  5.0000e-04|  5.0000e-04|   -4.808274|   -5.067308|   -5.447952|   -5.447708|   -5.001631|   -6.793986|    3.350184|
|         329|  1.0208e+01|  1.2032e-19|  1.2412e-03|  5.0000e-04|  5.0000e-04|  5.0000e-04|   -4.808289|   -5.067299|   -5.447959|   -5.447715|   -5.001649|   -6.803044|    3.350180|
|         330|  1.0205e+01|  1.2032e-19|  1.2412e-03|  5.0000e-04|  5.0000e-04|  5.0000e-04|   -4.808305|   -5.067290|   -5.447966|   -5.447722|   -5.001666|   -6.803222|    3.350176|
|         331|  1.0202e+01|  1.2032e-19|  1.2412e-03|  5.0000e-04|  5.0000e-04|  5.0000e-04|   -4.808320|   -5.067281|   -5.447973|   -5.447729|   -5.001683|   -6.803241|    3.350172|
|         332|  1.0198e+01|  1.2032e-19|  1.2412e-03|  5.0000e-04|  5.0000e-04|  5.0000e-04|   -4.808335|   -5.067272|   -5.447980|   -5.447736|   -5.001701|   -6.803475|    3.350169|
|         333|  1.0196e+01|  1.2032e-19|  1.2412e-03|  5.0000e-04|  5.0000e-04|  5.0000e-04|   -4.808350|   -5.067263|   -5.447987|   -5.447743|   -5.001718|   -6.803488|    3.350165|
|         334|  1.0193e+01|  1.2032e-19|  1.2412e-03|  5.0000e-04|  5.0000e-04|  5.0000e-04|   -4.808365|   -5.067254|   -5.447994|   -5.447750|   -5.001736|   -6.803728|    3.350161|
|         335|  1.0189e+01|  1.2032e-19|  1.2412e-03|  5.0000e-04|  5.0000e-04|  5.0000e-04|   -4.808380|   -5.067245|   -5.448002|   -5.447757|   -5.001753|   -6.803788|    3.350157|
|         336|  1.0186e+01|  1.2032e-19|  1.2412e-03|  5.0000e-04|  5.0000e-04|  5.0000e-04|   -4.808396|   -5.067236|   -5.448009|   -5.447764|   -5.001771|   -6.803948|    3.350153|
|         337|  1.0183e+01|  1.2032e-19|  1.2412e-03|  5.0000e-04|  5.0000e-04|  5.0000e-04|   -4.808411|   -5.067227|   -5.448016|   -5.447771|   -5.001788|   -6.759804|    3.350149|
|         338|  1.0180e+01|  1.2032e-19|  1.2412e-03|  5.0000e-04|  5.0000e-04|  5.0000e-04|   -4.808426|   -5.067218|   -5.448023|   -5.447778|   -5.001806|   -6.784523|    3.350146|
|         339|  1.0177e+01|  1.2032e-19|  1.2412e-03|  5.0000e-04|  5.0000e-04|  5.0000e-04|   -4.808441|   -5.067208|   -5.448030|   -5.447785|   -5.001823|   -6.803630|    3.350142|
|         340|  1.0174e+01|  1.2032e-19|  1.2412e-03|  5.0000e-04|  5.0000e-04|  5.0000e-04|   -4.808457|   -5.067199|   -5.448037|   -5.447792|   -5.001841|   -6.806655|    3.350138|
|         341|  1.0172e+01|  1.2032e-19|  1.2412e-03|  5.0000e-04|  5.0000e-04|  5.0000e-04|   -4.808472|   -5.067190|   -5.448044|   -5.447799|   -5.001859|   -6.274846|    3.350134|
|         342|  1.0170e+01|  1.2032e-19|  1.2412e-03|  5.0000e-04|  5.0000e-04|  5.0000e-04|   -4.808487|   -5.067181|   -5.448051|   -5.447806|   -5.001876|   -6.812192|    3.350130|
|         343|  1.0167e+01|  1.2032e-19|  1.2412e-03|  5.0000e-04|  5.0000e-04|  5.0000e-04|   -4.808502|   -5.067172|   -5.448058|   -5.447814|   -5.001894|   -6.765862|    3.350127|
|         344|  1.0164e+01|  1.2032e-19|  1.2412e-03|  5.0000e-04|  5.0000e-04|  5.0000e-04|   -4.808517|   -5.067163|   -5.448065|   -5.447821|   -5.001911|   -6.815537|    3.350123|
|         345|  1.0162e+01|  1.2032e-19|  1.2412e-03|  5.0000e-04|  5.0000e-04|  5.0000e-04|   -4.808533|   -5.067154|   -5.448072|   -5.447828|   -5.001929|   -6.814279|    3.350119|
|         346|  1.0159e+01|  1.2032e-19|  1.2412e-03|  5.0000e-04|  5.0000e-04|  5.0000e-04|   -4.808548|   -5.067145|   -5.448079|   -5.447835|   -5.001946|   -6.814798|    3.350115|
|         347|  1.0157e+01|  1.2032e-19|  1.2412e-03|  5.0000e-04|  5.0000e-04|  5.0000e-04|   -4.808563|   -5.067136|   -5.448086|   -5.447842|   -5.001964|   -6.815167|    3.350112|
|         348|  1.0154e+01|  1.2032e-19|  1.2412e-03|  5.0000e-04|  5.0000e-04|  5.0000e-04|   -4.808578|   -5.067127|   -5.448093|   -5.447849|   -5.001981|   -6.815651|    3.350108|
|         349|  1.0151e+01|  1.2032e-19|  1.2412e-03|  5.0000e-04|  5.0000e-04|  5.0000e-04|   -4.808594|   -5.067118|   -5.448100|   -5.447856|   -5.001999|   -6.816166|    3.350104|
|         350|  1.0148e+01|  1.2032e-19|  1.2412e-03|  5.0000e-04|  5.0000e-04|  5.0000e-04|   -4.808609|   -5.067109|   -5.448107|   -5.447863|   -5.002017|   -6.816574|    3.350100|
[...]
|        6002|  6.9189e+00|  5.5042e-31|  1.2412e-03|  5.0000e-04|  5.0000e-04|  5.0000e-04|   -4.882510|   -5.056374|   -5.492123|   -5.491826|   -4.979192|    3.565735|    3.436574|
|        6003|  6.9181e+00|  5.7227e-31|  1.2412e-03|  5.0000e-04|  5.0000e-04|  5.0000e-04|   -4.882500|   -5.056382|   -5.492121|   -5.491824|   -4.979208|    3.565734|    3.436608|
|        6004|  6.9173e+00|  5.9503e-31|  1.2412e-03|  5.0000e-04|  5.0000e-04|  5.0000e-04|   -4.882491|   -5.056390|   -5.492118|   -5.491821|   -4.979224|    3.565722|    3.436641|
|        6005|  6.9166e+00|  6.1873e-31|  1.2412e-03|  5.0000e-04|  5.0000e-04|  5.0000e-04|   -4.882482|   -5.056398|   -5.492115|   -5.491818|   -4.979240|    3.565707|    3.436675|
|        6006|  6.9158e+00|  6.4341e-31|  1.2412e-03|  5.0000e-04|  5.0000e-04|  5.0000e-04|   -4.882473|   -5.056405|   -5.492112|   -5.491815|   -4.979257|    3.565690|    3.436709|
|        6007|  6.9150e+00|  6.6912e-31|  1.2412e-03|  5.0000e-04|  5.0000e-04|  5.0000e-04|   -4.882464|   -5.056413|   -5.492109|   -5.491813|   -4.979273|    3.565667|    3.436743|
|        6008|  6.9143e+00|  6.9590e-31|  1.2412e-03|  5.0000e-04|  5.0000e-04|  5.0000e-04|   -4.882455|   -5.056421|   -5.492107|   -5.491810|   -4.979289|    3.565649|    3.436777|
|        6009|  6.9135e+00|  7.2379e-31|  1.2412e-03|  5.0000e-04|  5.0000e-04|  5.0000e-04|   -4.882445|   -5.056429|   -5.492104|   -5.491807|   -4.979305|    3.565631|    3.436811|
|        6010|  6.9127e+00|  7.5285e-31|  1.2412e-03|  5.0000e-04|  5.0000e-04|  5.0000e-04|   -4.882436|   -5.056437|   -5.492101|   -5.491804|   -4.979321|    3.565618|    3.436845|
|        6011|  6.9120e+00|  7.8312e-31|  1.2412e-03|  5.0000e-04|  5.0000e-04|  5.0000e-04|   -4.882427|   -5.056445|   -5.492098|   -5.491801|   -4.979337|    3.565593|    3.436878|
|        6012|  6.9112e+00|  8.1465e-31|  1.2412e-03|  5.0000e-04|  5.0000e-04|  5.0000e-04|   -4.882418|   -5.056453|   -5.492095|   -5.491799|   -4.979353|    3.565578|    3.436912|
|        6013|  6.9104e+00|  8.4750e-31|  1.2412e-03|  5.0000e-04|  5.0000e-04|  5.0000e-04|   -4.882408|   -5.056461|   -5.492093|   -5.491796|   -4.979369|    3.565557|    3.436946|
|        6014|  6.9096e+00|  8.8172e-31|  1.2412e-03|  5.0000e-04|  5.0000e-04|  5.0000e-04|   -4.882399|   -5.056468|   -5.492090|   -5.491793|   -4.979385|    3.565525|    3.436980|
|        6015|  6.9088e+00|  9.1738e-31|  1.2412e-03|  5.0000e-04|  5.0000e-04|  5.0000e-04|   -4.882390|   -5.056476|   -5.492087|   -5.491790|   -4.979401|    3.565507|    3.437014|
|        6016|  6.9080e+00|  9.5453e-31|  1.2412e-03|  5.0000e-04|  5.0000e-04|  5.0000e-04|   -4.882380|   -5.056484|   -5.492084|   -5.491787|   -4.979417|    3.565479|    3.437048|
|        6017|  6.9073e+00|  9.9323e-31|  1.2412e-03|  5.0000e-04|  5.0000e-04|  5.0000e-04|   -4.882371|   -5.056492|   -5.492081|   -5.491784|   -4.979433|    3.565449|    3.437082|
|        6018|  6.9065e+00|  1.0336e-30|  1.2412e-03|  5.0000e-04|  5.0000e-04|  5.0000e-04|   -4.882362|   -5.056500|   -5.492078|   -5.491782|   -4.979449|    3.565417|    3.437116|
|        6019|  6.9057e+00|  1.0756e-30|  1.2412e-03|  5.0000e-04|  5.0000e-04|  5.0000e-04|   -4.882352|   -5.056508|   -5.492075|   -5.491779|   -4.979465|    3.565377|    3.437149|
|        6020|  6.9049e+00|  1.1194e-30|  1.2412e-03|  5.0000e-04|  5.0000e-04|  5.0000e-04|   -4.882343|   -5.056516|   -5.492073|   -5.491776|   -4.979481|    3.565349|    3.437183|
|        6021|  6.9041e+00|  1.1650e-30|  1.2412e-03|  5.0000e-04|  5.0000e-04|  5.0000e-04|   -4.882334|   -5.056524|   -5.492070|   -5.491773|   -4.979493|    3.565312|    3.437217|
|        6022|  6.9033e+00|  1.2125e-30|  1.2412e-03|  5.0000e-04|  5.0000e-04|  5.0000e-04|   -4.882324|   -5.056532|   -5.492067|   -5.491770|   -4.979509|    3.577379|    3.437251|
|        6023|  6.9025e+00|  1.2621e-30|  1.2412e-03|  5.0000e-04|  5.0000e-04|  5.0000e-04|   -4.882315|   -5.056540|   -5.492064|   -5.491767|   -4.979525|    3.563636|    3.437285|
|        6024|  6.9017e+00|  1.3137e-30|  1.2412e-03|  5.0000e-04|  5.0000e-04|  5.0000e-04|   -4.882306|   -5.056548|   -5.492061|   -5.491764|   -4.979541|    3.567012|    3.437319|
|        6025|  6.9009e+00|  1.3675e-30|  1.2412e-03|  5.0000e-04|  5.0000e-04|  5.0000e-04|   -4.882296|   -5.056555|   -5.492058|   -5.491761|   -4.979557|    3.566030|    3.437353|
|        6026|  6.9001e+00|  1.4236e-30|  1.2412e-03|  5.0000e-04|  5.0000e-04|  5.0000e-04|   -4.882287|   -5.056563|   -5.492055|   -5.491759|   -4.979573|    3.566114|    3.437387|
|        6027|  6.8994e+00|  1.4821e-30|  1.2412e-03|  5.0000e-04|  5.0000e-04|  5.0000e-04|   -4.882277|   -5.056571|   -5.492052|   -5.491756|   -4.979588|    3.566467|    3.437421|
|        6028|  6.8986e+00|  1.5430e-30|  1.2412e-03|  5.0000e-04|  5.0000e-04|  5.0000e-04|   -4.882268|   -5.056579|   -5.492049|   -5.491753|   -4.979604|    3.567558|    3.437455|
|        6029|  6.8978e+00|  1.6065e-30|  1.2412e-03|  5.0000e-04|  5.0000e-04|  5.0000e-04|   -4.882259|   -5.056587|   -5.492046|   -5.491750|   -4.979620|    3.570044|    3.437489|
|        6030|  6.8970e+00|  1.6726e-30|  1.2412e-03|  5.0000e-04|  5.0000e-04|  5.0000e-04|   -4.882249|   -5.056595|   -5.492043|   -5.491747|   -4.979635|    3.575920|    3.437523|
|        6031|  6.8962e+00|  1.7416e-30|  1.2412e-03|  5.0000e-04|  5.0000e-04|  5.0000e-04|   -4.882240|   -5.056603|   -5.492040|   -5.491744|   -4.979651|    3.590070|    3.437557|
|        6032|  6.8954e+00|  1.8135e-30|  1.2412e-03|  5.0000e-04|  5.0000e-04|  5.0000e-04|   -4.882230|   -5.056611|   -5.492037|   -5.491741|   -4.979667|    3.624445|    3.437591|
|        6033|  6.8946e+00|  1.8884e-30|  1.2412e-03|  5.0000e-04|  5.0000e-04|  5.0000e-04|   -4.882221|   -5.056619|   -5.492035|   -5.491738|   -4.979682|    3.702693|    3.437625|
|        6034|  6.8938e+00|  1.9665e-30|  1.2412e-03|  5.0000e-04|  5.0000e-04|  5.0000e-04|   -4.882211|   -5.056627|   -5.492032|   -5.491735|   -4.979698|    3.852013|    3.437659|
|        6035|  6.8930e+00|  2.0479e-30|  1.2412e-03|  5.0000e-04|  5.0000e-04|  5.0000e-04|   -4.882202|   -5.056635|   -5.492029|   -5.491732|   -4.979714|    4.076372|    3.437693|
|        6036|  6.8923e+00|  2.1327e-30|  1.2412e-03|  5.0000e-04|  5.0000e-04|  5.0000e-04|   -4.882192|   -5.056643|   -5.492026|   -5.491729|   -4.979729|    4.357051|    3.437727|
|        6037|  6.8915e+00|  2.2212e-30|  1.2412e-03|  5.0000e-04|  5.0000e-04|  5.0000e-04|   -4.882183|   -5.056651|   -5.492023|   -5.491726|   -4.979745|    4.676046|    3.437761|
|        6038|  6.8907e+00|  2.3134e-30|  1.2412e-03|  5.0000e-04|  5.0000e-04|  5.0000e-04|   -4.882173|   -5.056659|   -5.492020|   -5.491723|   -4.979760|    5.025317|    3.437795|
|        6039|  6.8899e+00|  2.4095e-30|  1.2412e-03|  5.0000e-04|  5.0000e-04|  5.0000e-04|   -4.882164|   -5.056667|   -5.492017|   -5.491720|   -4.979776|    5.409959|    3.437829|
|        6040|  6.8891e+00|  2.5097e-30|  1.2412e-03|  5.0000e-04|  5.0000e-04|  5.0000e-04|   -4.882154|   -5.056675|   -5.492014|   -5.491717|   -4.979791|    5.824306|    3.437863|
|        6041|  6.8883e+00|  2.6141e-30|  1.2412e-03|  5.0000e-04|  5.0000e-04|  5.0000e-04|   -4.882144|   -5.056683|   -5.492011|   -5.491714|   -4.979807|    6.265079|    3.437897|
|        6042|  6.8875e+00|  2.7230e-30|  1.2412e-03|  5.0000e-04|  5.0000e-04|  5.0000e-04|   -4.882135|   -5.056691|   -5.492008|   -5.491711|   -4.979822|    6.663975|    3.437931|
|        6043|  6.8867e+00|  2.8365e-30|  1.2412e-03|  5.0000e-04|  5.0000e-04|  5.0000e-04|   -4.882125|   -5.056699|   -5.492005|   -5.491708|   -4.979838|    6.414076|    3.437965|
|        6044|  6.8859e+00|  2.9548e-30|  1.2412e-03|  5.0000e-04|  5.0000e-04|  5.0000e-04|   -4.882116|   -5.056707|   -5.492001|   -5.491705|   -4.979853|    6.183665|    3.437999|
|        6045|  6.8851e+00|  3.0782e-30|  1.2412e-03|  5.0000e-04|  5.0000e-04|  5.0000e-04|   -4.882106|   -5.056715|   -5.491998|   -5.491702|   -4.979868|    5.842432|    3.438033|
|        6046|  6.8844e+00|  3.2068e-30|  1.2412e-03|  5.0000e-04|  5.0000e-04|  5.0000e-04|   -4.882096|   -5.056723|   -5.491995|   -5.491699|   -4.979884|    5.166033|    3.438067|
|        6047|  6.8836e+00|  3.3409e-30|  1.2412e-03|  5.0000e-04|  5.0000e-04|  5.0000e-04|   -4.882087|   -5.056731|   -5.491992|   -5.491696|   -4.979899|    4.941883|    3.438101|
|        6048|  6.8828e+00|  3.4806e-30|  1.2412e-03|  5.0000e-04|  5.0000e-04|  5.0000e-04|   -4.882077|   -5.056739|   -5.491989|   -5.491693|   -4.979914|    5.355992|    3.438135|
|        6049|  6.8820e+00|  3.6263e-30|  1.2412e-03|  5.0000e-04|  5.0000e-04|  5.0000e-04|   -4.882067|   -5.056747|   -5.491986|   -5.491690|   -4.979930|    5.665396|    3.438169|
|        6050|  6.8812e+00|  3.7782e-30|  1.2412e-03|  5.0000e-04|  5.0000e-04|  5.0000e-04|   -4.882058|   -5.056755|   -5.491983|   -5.491687|   -4.979945|    6.400599|    3.438203|
|        6051|  6.8804e+00|  3.9366e-30|  1.2412e-03|  5.0000e-04|  5.0000e-04|  5.0000e-04|   -4.882048|   -5.056763|   -5.491980|   -5.491684|   -4.979960|    6.736743|    3.438238|
|        6052|  6.8796e+00|  4.1017e-30|  1.2412e-03|  5.0000e-04|  5.0000e-04|  5.0000e-04|   -4.882038|   -5.056771|   -5.491977|   -5.491681|   -4.979976|    6.634917|    3.438272|
|        6053|  6.8789e+00|  4.2738e-30|  1.2412e-03|  5.0000e-04|  5.0000e-04|  5.0000e-04|   -4.882029|   -5.056779|   -5.491974|   -5.491678|   -4.979991|    6.557363|    3.438306|
|        6054|  6.8781e+00|  4.4533e-30|  1.2412e-03|  5.0000e-04|  5.0000e-04|  5.0000e-04|   -4.882019|   -5.056787|   -5.491971|   -5.491675|   -4.980006|    6.308177|    3.438340|
|        6055|  6.8773e+00|  4.6404e-30|  1.2412e-03|  5.0000e-04|  5.0000e-04|  5.0000e-04|   -4.882009|   -5.056795|   -5.491968|   -5.491672|   -4.980021|    5.653635|    3.438374|
|        6056|  6.8765e+00|  4.8355e-30|  1.2412e-03|  5.0000e-04|  5.0000e-04|  5.0000e-04|   -4.882000|   -5.056803|   -5.491965|   -5.491669|   -4.980036|    4.985504|    3.438408|
|        6057|  6.8757e+00|  5.0388e-30|  1.2412e-03|  5.0000e-04|  5.0000e-04|  5.0000e-04|   -4.881990|   -5.056811|   -5.491961|   -5.491665|   -4.980051|    6.095434|    3.438442|
|        6058|  6.8749e+00|  5.2509e-30|  1.2412e-03|  5.0000e-04|  5.0000e-04|  5.0000e-04|   -4.881980|   -5.056819|   -5.491958|   -5.491662|   -4.980067|    7.075377|    3.438476|
|        6059|  6.8741e+00|  5.4719e-30|  1.2412e-03|  5.0000e-04|  5.0000e-04|  5.0000e-04|   -4.881970|   -5.056827|   -5.491955|   -5.491659|   -4.980082|    7.454685|    3.438510|
|        6060|  6.8734e+00|  5.7024e-30|  1.2412e-03|  5.0000e-04|  5.0000e-04|  5.0000e-04|   -4.881961|   -5.056835|   -5.491952|   -5.491656|   -4.980097|    7.291721|    3.438545|
|        6061|  6.8726e+00|  5.9426e-30|  1.2412e-03|  5.0000e-04|  5.0000e-04|  5.0000e-04|   -4.881951|   -5.056843|   -5.491949|   -5.491653|   -4.980112|    6.742236|    3.438579|
|        6062|  6.8718e+00|  6.1931e-30|  1.2412e-03|  5.0000e-04|  5.0000e-04|  5.0000e-04|   -4.881941|   -5.056851|   -5.491946|   -5.491650|   -4.980127|    6.614586|    3.438613|
|        6063|  6.8710e+00|  6.4543e-30|  1.2412e-03|  5.0000e-04|  5.0000e-04|  5.0000e-04|   -4.881931|   -5.056859|   -5.491943|   -5.491647|   -4.980142|    7.325205|    3.438647|
|        6064|  6.8702e+00|  6.7265e-30|  1.2412e-03|  5.0000e-04|  5.0000e-04|  5.0000e-04|   -4.881921|   -5.056867|   -5.491939|   -5.491643|   -4.980157|    8.162342|    3.438681|
|        6065|  6.8694e+00|  7.0104e-30|  1.2412e-03|  5.0000e-04|  5.0000e-04|  5.0000e-04|   -4.881911|   -5.056875|   -5.491936|   -5.491640|   -4.980172|    8.421296|    3.438715|
|        6066|  6.8686e+00|  7.3063e-30|  1.2412e-03|  5.0000e-04|  5.0000e-04|  5.0000e-04|   -4.881902|   -5.056883|   -5.491933|   -5.491637|   -4.980187|    8.556948|    3.438750|
|        6067|  6.8678e+00|  7.6149e-30|  1.2412e-03|  5.0000e-04|  5.0000e-04|  5.0000e-04|   -4.881892|   -5.056891|   -5.491930|   -5.491634|   -4.980202|    8.736091|    3.438784|
|        6068|  6.8671e+00|  7.9365e-30|  1.2412e-03|  5.0000e-04|  5.0000e-04|  5.0000e-04|   -4.881882|   -5.056899|   -5.491927|   -5.491631|   -4.980217|    8.921655|    3.438818|
|        6069|  6.8663e+00|  8.2718e-30|  1.2412e-03|  5.0000e-04|  5.0000e-04|  5.0000e-04|   -4.881872|   -5.056907|   -5.491923|   -5.491628|   -4.980232|    9.129392|    3.438852|
|        6070|  6.8655e+00|  8.6214e-30|  1.2412e-03|  5.0000e-04|  5.0000e-04|  5.0000e-04|   -4.881862|   -5.056916|   -5.491920|   -5.491624|   -4.980246|    9.353103|    3.438886|
|        6071|  6.8647e+00|  8.9859e-30|  1.2412e-03|  5.0000e-04|  5.0000e-04|  5.0000e-04|   -4.881852|   -5.056922|   -5.491917|   -5.491621|   -4.980261|    9.595570|    3.438921|
|        6072|  6.8639e+00|  9.3658e-30|  1.2412e-03|  5.0000e-04|  5.0000e-04|  5.0000e-04|   -4.881842|   -5.056931|   -5.491914|   -5.491618|   -4.980266|    9.855838|    3.438955|
|        6073|  6.8631e+00|  9.7619e-30|  1.2412e-03|  5.0000e-04|  5.0000e-04|  5.0000e-04|   -4.881832|   -5.056872|   -5.491911|   -5.491615|   -4.980244|   10.134288|    3.438989|
|        6074|  6.8623e+00|  1.0175e-29|  1.2412e-03|  5.0000e-04|  5.0000e-04|  5.0000e-04|   -4.881823|   -5.056911|   -5.491907|   -5.491612|   -4.979975|   10.430642|    3.439023|
|        6075|  6.8615e+00|  1.0605e-29|  1.2412e-03|  5.0000e-04|  5.0000e-04|  5.0000e-04|   -4.881813|   -5.056952|   -5.491904|   -5.491608|   -4.980317|    9.952221|    3.439057|
|        6076|  6.8607e+00|  1.1054e-29|  1.2412e-03|  5.0000e-04|  5.0000e-04|  5.0000e-04|   -4.881803|   -5.056859|   -5.491900|   -5.491605|   -4.979885|   10.476904|    3.439092|
|        6077|  6.8599e+00|  1.1522e-29|  1.2412e-03|  5.0000e-04|  5.0000e-04|  5.0000e-04|   -4.881793|   -5.054978|   -5.491890|   -5.491595|   -4.979553|   10.834246|    3.439126|
|        6078|  6.8592e+00|  1.2009e-29|  1.2412e-03|  5.0000e-04|  5.0000e-04|  5.0000e-04|   -4.881783|   -5.051248|   -5.491864|   -5.491579|   -4.963004|   11.214515|    3.439160|
|        6079|  6.8584e+00|  1.2518e-29|  1.2412e-03|  5.0000e-04|  5.0000e-04|  5.0000e-04|   -4.881773|   -5.037477|   -5.491567|   -5.491466|   -4.900209|   10.299303|    3.439194|
|        6080|  6.8576e+00|  1.3048e-29|  1.2412e-03|  5.0000e-04|  5.0000e-04|  5.0000e-04|   -4.881763|   -5.042219|   -5.491587|   -5.491465|   -4.865350|   11.344178|    3.439229|
|        6081|  6.8568e+00|  1.3600e-29|  1.2412e-03|  5.0000e-04|  5.0000e-04|  5.0000e-04|   -4.881753|   -5.027510|   -5.491621|   -5.491479|   -4.759855|   11.698767|    3.439263|
|        6082|  6.8560e+00|  1.4176e-29|  1.2412e-03|  5.0000e-04|  5.0000e-04|  5.0000e-04|   -4.881743|   -5.032358|   -5.491630|   -5.491471|   -4.849036|   12.136969|    3.439297|
|        6083|  6.8552e+00|  1.4776e-29|  1.2412e-03|  5.0000e-04|  5.0000e-04|  5.0000e-04|   -4.881733|   -4.703498|   -5.480100|   -5.484841|   -4.451233|   12.603279|    3.439332|
|        6084|  6.8544e+00|  1.5401e-29|  1.2412e-03|  5.0000e-04|  5.0000e-04|  5.0000e-04|   -4.881723|   -4.491317|   -5.478524|   -5.485494|   -4.436901|   13.086443|    3.439366|
|        6085|  6.8536e+00|  1.6053e-29|  1.2412e-03|  5.0000e-04|  5.0000e-04|  5.0000e-04|   -4.881713|   -3.915590|   -5.404932|   -5.059349|   -3.092640|   13.591852|    3.439400|
|        6086|  6.8528e+00|  1.6733e-29|  1.2412e-03|  5.0000e-04|  5.0000e-04|  5.0000e-04|   -4.881703|   -3.271787|   -5.267046|   -5.277041|   -2.467707|   14.116876|    3.439434|
|        6087|  6.8520e+00|  1.7441e-29|  1.2412e-03|  5.0000e-04|  5.0000e-04|  5.0000e-04|   -4.881692|   -2.234224|   -4.349804|   -4.336628|   -1.382268|   14.663061|    3.439469|
|        6088|  6.8511e+00|  1.8180e-29|  1.2412e-03|  5.0000e-04|  5.0000e-04|  5.0000e-04|   -4.881682|   -1.774824|   -3.886925|   -3.892021|   -0.924591|   15.230222|    3.439503|
|        6089|  6.8503e+00|  1.8949e-29|  1.2412e-03|  5.0000e-04|  5.0000e-04|  5.0000e-04|   -4.881672|   -1.010788|   -3.128595|   -3.120822|   -0.157692|   15.818820|    3.439537|
|        6090|  6.8495e+00|  1.9751e-29|  1.2412e-03|  5.0000e-04|  5.0000e-04|  5.0000e-04|   -4.881662|   -1.032738|   -3.150222|   -3.145079|   -0.180067|   16.427154|    3.439572|
|        6091|  6.8487e+00|  2.0587e-29|  1.2412e-03|  5.0000e-04|  5.0000e-04|  5.0000e-04|   -4.881652|   -1.021347|   -3.139161|   -3.132834|   -0.168529|   17.055460|    3.439606|
|        6092|  6.8479e+00|  2.1458e-29|  1.2412e-03|  5.0000e-04|  5.0000e-04|  5.0000e-04|   -4.881642|   -1.017853|   -3.135651|   -3.128936|   -0.165036|   17.686932|    3.439640|
|        6093|  6.8470e+00|  2.2366e-29|  1.2412e-03|  5.0000e-04|  5.0000e-04|  5.0000e-04|   -4.881632|   -1.015310|   -3.132628|   -3.125514|   -0.162891|   18.318379|    3.439675|
|        6094|  6.8462e+00|  2.3312e-29|  1.2412e-03|  5.0000e-04|  5.0000e-04|  5.0000e-04|   -4.881622|   -0.998281|   -2.990492|   -2.981652|   -0.154853|   18.952417|    3.439709|
|        6095|  6.8454e+00|  2.4296e-29|  1.2412e-03|  5.0000e-04|  5.0000e-04|  5.0000e-04|   -4.881612|   -0.945269|   -2.517383|   -2.865643|    0.050268|   19.617419|    3.439743|
|        6096|  6.8446e+00|  2.5361e-29|  1.2412e-03|  5.0000e-04|  5.0000e-04|  5.0000e-04|   -4.881602|   -0.892298|   -2.474650|   -2.811286|    0.227627|   19.844433|    3.439778|


Error in "void CSolver::SetResidual_RMS(const CGeometry*, const CConfig*)": 
-------------------------------------------------------------------------
SU2 has diverged (Residual > 10^20 detected).
------------------------------ Error Exit -------------------------------



scontrol show job 1128939
JobId=1128939 JobName=m9_medium
   UserId=anthonyy(3152141) GroupId=anthonyy(3152141) MCS_label=N/A
   Priority=732243 Nice=0 Account=rrg-jphickey QOS=normal
   JobState=COMPLETING Reason=NonZeroExitCode Dependency=(null)
   Requeue=0 Restarts=0 BatchFlag=1 Reboot=0 ExitCode=1:0
   RunTime=11:39:08 TimeLimit=18:00:00 TimeMin=N/A
   SubmitTime=2026-03-06T01:58:03 EligibleTime=2026-03-06T01:58:03
   AccrueTime=2026-03-06T01:58:03
   StartTime=2026-03-06T02:35:45 EndTime=2026-03-06T14:14:53 Deadline=N/A
   SuspendTime=None SecsPreSuspend=0 LastSchedEval=2026-03-06T02:35:45 Scheduler=Main
   Partition=compute AllocNode:Sid=tri-login05:2615333
   ReqNodeList=(null) ExcNodeList=(null)
   NodeList=tri[0094,0141]
   BatchHost=tri0094
   NumNodes=2 NumCPUs=384 NumTasks=128 CPUs/Task=1 ReqB:S:C:T=0:0:*:*
   ReqTRES=cpu=128,mem=1534000M,node=2,billing=128
   AllocTRES=cpu=384,mem=1534000M,node=2,billing=384
   Socks/Node=* NtasksPerN:B:S:C=64:0:*:* CoreSpec=*
   MinCPUsNode=64 MinMemoryNode=767000M MinTmpDiskNode=0
   Features=(null) DelayBoot=00:00:00
   OverSubscribe=NO Contiguous=0 Licenses=(null) Network=(null)
   Command=/scratch/anthonyy/reentry/orion/cases/m9_medium/run.sh
   WorkDir=/scratch/anthonyy/reentry/orion/cases/m9_medium
   Comment=/opt/slurm/bin/sbatch --export=NONE --get-user-env=L run.sh 
   StdErr=/scratch/anthonyy/reentry/orion/cases/m9_medium/orion_1128939.err
   StdIn=/dev/null
   StdOut=/scratch/anthonyy/reentry/orion/cases/m9_medium/orion_1128939.out
   TresPerTask=cpu=1
   

sacct -j 1128939
JobID           JobName    Account    Elapsed  MaxVMSize     MaxRSS  SystemCPU    UserCPU ExitCode 
------------ ---------- ---------- ---------- ---------- ---------- ---------- ---------- -------- 
1128939       m9_medium rrg-jphic+   11:39:08                         00:00:00   00:00:00      0:0 
1128939.bat+      batch rrg-jphic+   11:39:08                         00:00:00   00:00:00      0:0 
1128939.ext+     extern rrg-jphic+   11:39:08                         00:00:00   00:00:00      0:0 
1128939.0       SU2_CFD rrg-jphic+   11:39:02                         00:00:00   00:00:00      0:0 

