Nodes: tri[0569,1149]
Tasks: 128
NPN:   64

-------------------------------------------------------------------------
|    ___ _   _ ___                                                      |
|   / __| | | |_  )   Release 7.5.1 "Blackbird"                         |
|   \__ \ |_| |/ /                                                      |
|   |___/\___//___|   Suite (Computational Fluid Dynamics Code)         |
|                                                                       |
-------------------------------------------------------------------------
| SU2 Project Website: https://su2code.github.io                        |
|                                                                       |
| The SU2 Project is maintained by the SU2 Foundation                   |
| (http://su2foundation.org)                                            |
-------------------------------------------------------------------------
| Copyright 2012-2023, SU2 Contributors                                 |
|                                                                       |
| SU2 is free software; you can redistribute it and/or                  |
| modify it under the terms of the GNU Lesser General Public            |
| License as published by the Free Software Foundation; either          |
| version 2.1 of the License, or (at your option) any later version.    |
|                                                                       |
| SU2 is distributed in the hope that it will be useful,                |
| but WITHOUT ANY WARRANTY; without even the implied warranty of        |
| MERCHANTABILITY or FITNESS FOR A PARTICULAR PURPOSE. See the GNU      |
| Lesser General Public License for more details.                       |
|                                                                       |
| You should have received a copy of the GNU Lesser General Public      |
| License along with SU2. If not, see <http://www.gnu.org/licenses/>.   |
-------------------------------------------------------------------------

Parsing config file for zone 0

----------------- Physical Case Definition ( Zone 0 ) -------------------
Compressible RANS equations.
Turbulence model: Negative-Spalart-Allmaras
Hybrid RANS/LES: No Hybrid RANS/LES
Mach number: 9.
Angle of attack (AoA): 0 deg, and angle of sideslip (AoS): 0 deg.
Reynolds number: 1.02934e+09. Reference length 5.
Reading and writing binary SU2 native restart files.
Read flow solution from: restart_flow.dat.
Non-Dimensional simulation (V=1.0, Rho=1.0, T=1.0 at the farfield).
The reference area will be computed using y(2D) or z(3D) projection.
The semi-span will be computed using the max y(3D) value.
The reference length is 0.64607 m.
Reference origin for moment evaluation is (0.25, 0, 0).
Surface(s) where the force coefficients are evaluated: ORION_SURFACE.

Input mesh file name: medium.su2

--------------- Space Numerical Integration ( Zone 0 ) ------------------
Jameson-Schmidt-Turkel scheme (2nd order in space) for the flow inviscid terms.
JST viscous coefficients (2nd & 4th): 0.5, 0.02.
The method includes a grid stretching correction (p = 0.3).
Scalar upwind solver for the turbulence model.
First order integration in space.
Average of gradients with correction (viscous flow terms).
Average of gradients with correction (viscous turbulence terms).
Gradient for upwind reconstruction: Green-Gauss.
Gradient for viscous and source terms: Green-Gauss.

--------------- Time Numerical Integration  ( Zone 0 ) ------------------
Local time stepping (steady state simulation).
Euler implicit method for the flow equations.
FGMRES is used for solving the linear system.
Using a ILU(0) preconditioning.
Convergence criteria of the linear solver: 1e-06.
Max number of linear iterations: 100.
No CFL adaptation.
Courant-Friedrichs-Lewy number:   0.0005
Euler implicit time integration for the turbulence model.

------------------ Convergence Criteria  ( Zone 0 ) ---------------------
Maximum number of solver subiterations: 999999.
Begin convergence monitoring at iteration 5.
Residual minimum value: 1e-8.
Cauchy series min. value: 1e-10.
Number of Cauchy elements: 100.
Begin windowed time average at iteration 0.

-------------------- Output Information ( Zone 0 ) ----------------------
File writing frequency: 
+------------------------------------+
|                     File| Frequency|
+------------------------------------+
|                  RESTART|       150|
|                 PARAVIEW|       150|
|         SURFACE_PARAVIEW|       150|
+------------------------------------+
Writing the convergence history file every 1 inner iterations.
Writing the screen convergence history every 1 inner iterations.
The tabular file format is CSV (.csv).
Convergence history file name: history.
Forces breakdown file name: forces_breakdown.dat.
Surface file name: surface_flow.
Volume file name: flow.
Restart file name: restart_flow.

------------- Config File Boundary Information ( Zone 0 ) ---------------
+-----------------------------------------------------------------------+
|                        Marker Type|                        Marker Name|
+-----------------------------------------------------------------------+
|                          Far-field|                           FARFIELD|
+-----------------------------------------------------------------------+
|                     Heat flux wall|                      ORION_SURFACE|
+-----------------------------------------------------------------------+

-------------------- Output Preprocessing ( Zone 0 ) --------------------

WARNING: SURFACE_PRESSURE_DROP can only be computed for at least 2 surfaces (outlet, inlet, ...)

Screen output fields: INNER_ITER, WALL_TIME, MIN_DELTA_TIME, MAX_DELTA_TIME, MIN_CFL, MAX_CFL, AVG_CFL, RMS_DENSITY, RMS_MOMENTUM-X, RMS_MOMENTUM-Y, RMS_MOMENTUM-Z, RMS_ENERGY, RMS_NU_TILDE, DRAG
History output group(s): ITER, RMS_RES
Convergence field(s): RMS_DENSITY
Warning: No (valid) fields chosen for time convergence monitoring. Time convergence monitoring inactive.
Volume output fields: COORDINATES, SOLUTION, PRIMITIVE

------------------- Geometry Preprocessing ( Zone 0 ) -------------------
Three dimensional problem.
26648118 grid points before partitioning.
74775078 volume elements before partitioning.
2 surface markers.
1778 boundary elements in index 0 (Marker = FARFIELD).
811194 boundary elements in index 1 (Marker = ORION_SURFACE).
Executing the partitioning functions.
Building the graph adjacency structure.
Calling ParMETIS... graph partitioning complete (2763415 edge cuts).
Distributing ParMETIS coloring.
Rebalancing vertices.
Rebalancing volume element connectivity.
Rebalancing markers and surface elements.
29624692 vertices including ghost points. 
78760198 interior elements including halo cells. 
33893606 tetrahedra.
44681610 prisms.
184982 pyramids.
Establishing MPI communication patterns.
Setting point connectivity.
Renumbering points (Reverse Cuthill McKee Ordering).
Recomputing point connectivity.
Setting element connectivity.
Checking the numerical grid orientation.
All volume elements are correctly orientend.
All surface elements are correctly orientend.
Identifying edges and vertices.
Setting the control volume structure.
Volume of the computational grid: 535139.
Searching for the closest normal neighbors to the surfaces.
Storing a mapping from global to local point index.
Compute the surface curvature.
Max K: 137.039. Mean K: 3.89106. Standard deviation K: 7.38179.
Checking for periodicity.
Computing mesh quality statistics for the dual control volumes.
+--------------------------------------------------------------+
|           Mesh Quality Metric|        Minimum|        Maximum|
+--------------------------------------------------------------+
|    Orthogonality Angle (deg.)|        54.3699|             90|
|     CV Face Area Aspect Ratio|        1.00113|         100241|
|           CV Sub-Volume Ratio|         1.0025|        34.9431|
+--------------------------------------------------------------+
Finding max control volume width.
Communicating number of neighbors.
Reference area = 11.5308 m^2.
Semi-span length = 2.49998 m.
Wetted area = 57.9043 m^2.
Area projection in the x-plane = 19.6335 m^2, y-plane = 11.5309 m^2, z-plane = 11.5308 m^2.
Max. coordinate in the x-direction = 2.575 m, y-direction = 2.49998 m, z-direction = 2.5 m.
Min. coordinate in the x-direction = -0.71 m, y-direction = -2.49999 m, z-direction = -2.49999 m.
Computing wall distances.

-------------------- Solver Preprocessing ( Zone 0 ) --------------------
Viscous flow: Computing pressure using the ideal gas law
based on the free-stream temperature and a density computed
from the Reynolds number.
Force coefficients computed using free-stream values.

-- Models:
+------------------------------------------------------------------------------+
|          Viscosity Model|        Conductivity Model|              Fluid Model|
+------------------------------------------------------------------------------+
|               SUTHERLAND|          CONSTANT_PRANDTL|             STANDARD_AIR|
+------------------------------------------------------------------------------+
-- Fluid properties:
+------------------------------------------------------------------------------+
|                  Name|    Dim. value|    Ref. value|      Unit|Non-dim. value|
+------------------------------------------------------------------------------+
|        Ref. Viscosity|     1.716e-05|        3683.6|   N.s/m^2|   4.65848e-09|
|      Sutherland Temp.|        273.15|        288.15|         K|      0.947944|
|     Sutherland Const.|         110.4|        288.15|         K|      0.383134|
+------------------------------------------------------------------------------+
|        Prandtl (Lam.)|             -|             -|         -|          0.72|
|       Prandtl (Turb.)|             -|             -|         -|           0.9|
+------------------------------------------------------------------------------+
|          Gas Constant|       287.058|       32552.4|  N.m/kg.K|    0.00881834|
|      Spec. Heat Ratio|             -|             -|         -|           1.4|
+------------------------------------------------------------------------------+
-- Initial and free-stream conditions:
+------------------------------------------------------------------------------+
|                  Name|    Dim. value|    Ref. value|      Unit|Non-dim. value|
+------------------------------------------------------------------------------+
|       Static Pressure|       99485.6|   1.12817e+07|        Pa|    0.00881834|
|               Density|       1.20274|       1.20274|    kg/m^3|             1|
|           Temperature|        288.15|        288.15|         K|             1|
|          Total Energy|   4.89677e+06|   9.37997e+06|   m^2/s^2|      0.522046|
|            Velocity-X|       3062.67|       3062.67|       m/s|             1|
|            Velocity-Y|             0|       3062.67|       m/s|             0|
|            Velocity-Z|             0|       3062.67|       m/s|             0|
|    Velocity Magnitude|       3062.67|       3062.67|       m/s|             1|
+------------------------------------------------------------------------------+
|             Viscosity|    1.7893e-05|        3683.6|   N.s/m^2|   4.85747e-09|
|          Conductivity|             -|    1.1991e+08|   W/m^2.K|             -|
|     Turb. Kin. Energy|       35174.9|   9.37997e+06|   m^2/s^2|       0.00375|
|     Spec. Dissipation|   2.36441e+08|       3062.67|       1/s|       77200.7|
+------------------------------------------------------------------------------+
|           Mach Number|             -|             -|         -|             9|
|       Reynolds Number|             -|             -|         -|   1.02934e+09|
+------------------------------------------------------------------------------+
Initialize Jacobian structure (Navier-Stokes). MG level: 0.
Initialize Jacobian structure (SA model).

------------------- Numerics Preprocessing ( Zone 0 ) -------------------

----------------- Integration Preprocessing ( Zone 0 ) ------------------

------------------- Iteration Preprocessing ( Zone 0 ) ------------------
Euler/Navier-Stokes/RANS fluid iteration.

------------------------------ Begin Solver -----------------------------

Simulation Run using the Single-zone Driver
WARNING: SU2 was not compiled for an AVX-capable architecture. Performance could be better,
         see https://su2code.github.io/docs_v7/Build-SU2-Linux-MacOS/#compiler-optimizations
+-------------------------------------------------------------------------------------------------------------------------------------------------------------------------------------+
|  Inner_Iter|   Time(sec)|      Min DT|      Max DT|     Min CFL|     Max CFL|     Avg CFL|    rms[Rho]|   rms[RhoU]|   rms[RhoV]|   rms[RhoW]|   rms[RhoE]|     rms[nu]|          CD|
+-------------------------------------------------------------------------------------------------------------------------------------------------------------------------------------+
|           0|  4.3492e+00|  4.5470e-20|  1.2412e-03|  5.0000e-04|  5.0000e-04|  5.0000e-04|   -4.880597|   -5.071477|   -5.505106|   -5.504810|   -5.089688|   -6.349108|    3.712661|
|           1|  3.9256e+00|  4.5470e-20|  1.2412e-03|  5.0000e-04|  5.0000e-04|  5.0000e-04|   -4.880610|   -5.071472|   -5.505108|   -5.504812|   -5.089702|   -6.349288|    3.712630|
|           2|  3.6382e+00|  4.5470e-20|  1.2412e-03|  5.0000e-04|  5.0000e-04|  5.0000e-04|   -4.880624|   -5.071467|   -5.505110|   -5.504815|   -5.089715|   -6.349469|    3.712599|
|           3|  3.4911e+00|  4.5470e-20|  1.2412e-03|  5.0000e-04|  5.0000e-04|  5.0000e-04|   -4.880637|   -5.071462|   -5.505113|   -5.504817|   -5.089729|   -6.349651|    3.712568|
|           4|  3.4080e+00|  4.5470e-20|  1.2412e-03|  5.0000e-04|  5.0000e-04|  5.0000e-04|   -4.880650|   -5.071457|   -5.505115|   -5.504819|   -5.089742|   -6.349832|    3.712537|
|           5|  3.3747e+00|  4.5470e-20|  1.2412e-03|  5.0000e-04|  5.0000e-04|  5.0000e-04|   -4.880664|   -5.071452|   -5.505117|   -5.504821|   -5.089755|   -6.350014|    3.712505|
|           6|  3.3458e+00|  4.5470e-20|  1.2412e-03|  5.0000e-04|  5.0000e-04|  5.0000e-04|   -4.880677|   -5.071448|   -5.505120|   -5.504824|   -5.089769|   -6.350195|    3.712474|
|           7|  3.3159e+00|  4.5470e-20|  1.2412e-03|  5.0000e-04|  5.0000e-04|  5.0000e-04|   -4.880690|   -5.071443|   -5.505122|   -5.504826|   -5.089782|   -6.350377|    3.712443|
|           8|  3.3024e+00|  4.5470e-20|  1.2412e-03|  5.0000e-04|  5.0000e-04|  5.0000e-04|   -4.880704|   -5.071438|   -5.505124|   -5.504828|   -5.089796|   -6.350558|    3.712412|
|           9|  3.3051e+00|  4.5470e-20|  1.2412e-03|  5.0000e-04|  5.0000e-04|  5.0000e-04|   -4.880717|   -5.071433|   -5.505127|   -5.504831|   -5.089809|   -6.350739|    3.712380|
|          10|  3.3035e+00|  4.5470e-20|  1.2412e-03|  5.0000e-04|  5.0000e-04|  5.0000e-04|   -4.880730|   -5.071428|   -5.505129|   -5.504833|   -5.089823|   -6.350920|    3.712349|
|          11|  3.3400e+00|  4.5470e-20|  1.2412e-03|  5.0000e-04|  5.0000e-04|  5.0000e-04|   -4.880743|   -5.071423|   -5.505131|   -5.504835|   -5.089836|   -6.351102|    3.712318|
|          12|  3.3384e+00|  4.5470e-20|  1.2412e-03|  5.0000e-04|  5.0000e-04|  5.0000e-04|   -4.880757|   -5.071419|   -5.505134|   -5.504837|   -5.089849|   -6.351283|    3.712287|
|          13|  3.3568e+00|  4.5470e-20|  1.2412e-03|  5.0000e-04|  5.0000e-04|  5.0000e-04|   -4.880770|   -5.071414|   -5.505136|   -5.504840|   -5.089863|   -6.351464|    3.712255|
|          14|  3.3333e+00|  4.5470e-20|  1.2412e-03|  5.0000e-04|  5.0000e-04|  5.0000e-04|   -4.880783|   -5.071409|   -5.505138|   -5.504842|   -5.089876|   -6.351645|    3.712224|
|          15|  3.3082e+00|  4.5470e-20|  1.2412e-03|  5.0000e-04|  5.0000e-04|  5.0000e-04|   -4.880797|   -5.071404|   -5.505140|   -5.504844|   -5.089890|   -6.351826|    3.712193|
|          16|  3.2819e+00|  4.5470e-20|  1.2412e-03|  5.0000e-04|  5.0000e-04|  5.0000e-04|   -4.880810|   -5.071399|   -5.505143|   -5.504847|   -5.089903|   -6.352007|    3.712161|
|          17|  3.2591e+00|  4.5470e-20|  1.2412e-03|  5.0000e-04|  5.0000e-04|  5.0000e-04|   -4.880823|   -5.071394|   -5.505145|   -5.504849|   -5.089917|   -6.352188|    3.712130|
|          18|  3.2605e+00|  4.5470e-20|  1.2412e-03|  5.0000e-04|  5.0000e-04|  5.0000e-04|   -4.880837|   -5.071390|   -5.505147|   -5.504851|   -5.089930|   -6.352369|    3.712099|
|          19|  3.2531e+00|  4.5470e-20|  1.2412e-03|  5.0000e-04|  5.0000e-04|  5.0000e-04|   -4.880850|   -5.071385|   -5.505150|   -5.504853|   -5.089944|   -6.352550|    3.712068|
|          20|  3.3810e+00|  4.5470e-20|  1.2412e-03|  5.0000e-04|  5.0000e-04|  5.0000e-04|   -4.880863|   -5.071380|   -5.505152|   -5.504856|   -5.089957|   -6.352730|    3.712036|
|          21|  3.3455e+00|  4.5470e-20|  1.2412e-03|  5.0000e-04|  5.0000e-04|  5.0000e-04|   -4.880876|   -5.071375|   -5.505154|   -5.504858|   -5.089970|   -6.352680|    3.712005|
|          22|  3.3098e+00|  4.5470e-20|  1.2412e-03|  5.0000e-04|  5.0000e-04|  5.0000e-04|   -4.880890|   -5.071370|   -5.505157|   -5.504860|   -5.089984|   -6.353065|    3.711974|
|          23|  3.2843e+00|  4.5470e-20|  1.2412e-03|  5.0000e-04|  5.0000e-04|  5.0000e-04|   -4.880903|   -5.071366|   -5.505159|   -5.504863|   -5.089997|   -6.353250|    3.711943|
|          24|  3.2612e+00|  4.5470e-20|  1.2412e-03|  5.0000e-04|  5.0000e-04|  5.0000e-04|   -4.880916|   -5.071361|   -5.505161|   -5.504865|   -5.090011|   -6.353431|    3.711911|
|          25|  3.2407e+00|  4.5470e-20|  1.2412e-03|  5.0000e-04|  5.0000e-04|  5.0000e-04|   -4.880930|   -5.071356|   -5.505163|   -5.504867|   -5.090024|   -6.353612|    3.711880|
|          26|  3.2462e+00|  4.5470e-20|  1.2412e-03|  5.0000e-04|  5.0000e-04|  5.0000e-04|   -4.880943|   -5.071351|   -5.505166|   -5.504870|   -5.090037|   -6.353794|    3.711849|
|          27|  3.2565e+00|  4.5470e-20|  1.2412e-03|  5.0000e-04|  5.0000e-04|  5.0000e-04|   -4.880956|   -5.071346|   -5.505168|   -5.504872|   -5.090051|   -6.353975|    3.711817|
|          28|  3.2627e+00|  4.5470e-20|  1.2412e-03|  5.0000e-04|  5.0000e-04|  5.0000e-04|   -4.880969|   -5.071341|   -5.505170|   -5.504874|   -5.090064|   -6.354157|    3.711786|
|          29|  3.2734e+00|  4.5470e-20|  1.2412e-03|  5.0000e-04|  5.0000e-04|  5.0000e-04|   -4.880983|   -5.071337|   -5.505173|   -5.504876|   -5.090078|   -6.354338|    3.711755|
|          30|  3.2848e+00|  4.5470e-20|  1.2412e-03|  5.0000e-04|  5.0000e-04|  5.0000e-04|   -4.880996|   -5.071332|   -5.505175|   -5.504879|   -5.090091|   -6.354519|    3.711723|
|          31|  3.2947e+00|  4.5470e-20|  1.2412e-03|  5.0000e-04|  5.0000e-04|  5.0000e-04|   -4.881009|   -5.071327|   -5.505177|   -5.504881|   -5.090105|   -6.354700|    3.711692|
|          32|  3.3080e+00|  4.5470e-20|  1.2412e-03|  5.0000e-04|  5.0000e-04|  5.0000e-04|   -4.881023|   -5.071322|   -5.505180|   -5.504883|   -5.090118|   -6.354881|    3.711661|
|          33|  3.3178e+00|  4.5470e-20|  1.2412e-03|  5.0000e-04|  5.0000e-04|  5.0000e-04|   -4.881036|   -5.071317|   -5.505182|   -5.504886|   -5.090131|   -6.355062|    3.711630|
|          34|  3.3438e+00|  4.5470e-20|  1.2412e-03|  5.0000e-04|  5.0000e-04|  5.0000e-04|   -4.881049|   -5.071313|   -5.505184|   -5.504888|   -5.090145|   -6.355243|    3.711598|
|          35|  3.3672e+00|  4.5470e-20|  1.2412e-03|  5.0000e-04|  5.0000e-04|  5.0000e-04|   -4.881062|   -5.071308|   -5.505186|   -5.504890|   -5.090158|   -6.355424|    3.711567|
|          36|  3.3947e+00|  4.5470e-20|  1.2412e-03|  5.0000e-04|  5.0000e-04|  5.0000e-04|   -4.881076|   -5.071303|   -5.505189|   -5.504892|   -5.090172|   -6.355604|    3.711536|
|          37|  3.4107e+00|  4.5470e-20|  1.2412e-03|  5.0000e-04|  5.0000e-04|  5.0000e-04|   -4.881089|   -5.071298|   -5.505191|   -5.504895|   -5.090185|   -6.355785|    3.711504|
|          38|  3.4369e+00|  4.5470e-20|  1.2412e-03|  5.0000e-04|  5.0000e-04|  5.0000e-04|   -4.881102|   -5.071293|   -5.505193|   -5.504897|   -5.090198|   -6.355966|    3.711473|
|          39|  3.4650e+00|  4.5470e-20|  1.2412e-03|  5.0000e-04|  5.0000e-04|  5.0000e-04|   -4.881115|   -5.071289|   -5.505196|   -5.504899|   -5.090212|   -6.356146|    3.711442|
|          40|  3.4883e+00|  4.5470e-20|  1.2412e-03|  5.0000e-04|  5.0000e-04|  5.0000e-04|   -4.881129|   -5.071284|   -5.505198|   -5.504902|   -5.090225|   -6.356326|    3.711410|
|          41|  3.5135e+00|  4.5470e-20|  1.2412e-03|  5.0000e-04|  5.0000e-04|  5.0000e-04|   -4.881142|   -5.071279|   -5.505200|   -5.504904|   -5.090238|   -6.356507|    3.711379|
|          42|  3.5399e+00|  4.5470e-20|  1.2412e-03|  5.0000e-04|  5.0000e-04|  5.0000e-04|   -4.881155|   -5.071274|   -5.505203|   -5.504906|   -5.090252|   -6.356687|    3.711348|
|          43|  3.5571e+00|  4.5470e-20|  1.2412e-03|  5.0000e-04|  5.0000e-04|  5.0000e-04|   -4.881168|   -5.071269|   -5.505205|   -5.504908|   -5.090265|   -6.356868|    3.711316|
|          44|  3.5733e+00|  4.5470e-20|  1.2412e-03|  5.0000e-04|  5.0000e-04|  5.0000e-04|   -4.881182|   -5.071265|   -5.505207|   -5.504911|   -5.090279|   -6.357048|    3.711285|
|          45|  3.5777e+00|  4.5470e-20|  1.2412e-03|  5.0000e-04|  5.0000e-04|  5.0000e-04|   -4.881195|   -5.071260|   -5.505209|   -5.504913|   -5.090292|   -6.357228|    3.711254|
|          46|  3.5805e+00|  4.5470e-20|  1.2412e-03|  5.0000e-04|  5.0000e-04|  5.0000e-04|   -4.881208|   -5.071255|   -5.505212|   -5.504915|   -5.090305|   -6.357409|    3.711222|
|          47|  3.5795e+00|  4.5470e-20|  1.2412e-03|  5.0000e-04|  5.0000e-04|  5.0000e-04|   -4.881221|   -5.071250|   -5.505214|   -5.504918|   -5.090319|   -6.357589|    3.711191|
|          48|  3.5713e+00|  4.5470e-20|  1.2412e-03|  5.0000e-04|  5.0000e-04|  5.0000e-04|   -4.881234|   -5.071245|   -5.505216|   -5.504920|   -5.090332|   -6.357770|    3.711160|
|          49|  3.5621e+00|  4.5470e-20|  1.2412e-03|  5.0000e-04|  5.0000e-04|  5.0000e-04|   -4.881248|   -5.071241|   -5.505219|   -5.504922|   -5.090346|   -6.357950|    3.711128|
|          50|  3.5542e+00|  4.5470e-20|  1.2412e-03|  5.0000e-04|  5.0000e-04|  5.0000e-04|   -4.881261|   -5.071236|   -5.505221|   -5.504924|   -5.090359|   -6.358131|    3.711097|
|          51|  3.5416e+00|  4.5470e-20|  1.2412e-03|  5.0000e-04|  5.0000e-04|  5.0000e-04|   -4.881274|   -5.071231|   -5.505223|   -5.504927|   -5.090372|   -6.358311|    3.711066|
|          52|  3.5326e+00|  4.5470e-20|  1.2412e-03|  5.0000e-04|  5.0000e-04|  5.0000e-04|   -4.881287|   -5.071226|   -5.505226|   -5.504929|   -5.090386|   -6.358495|    3.711034|
|          53|  3.5294e+00|  4.5470e-20|  1.2412e-03|  5.0000e-04|  5.0000e-04|  5.0000e-04|   -4.881301|   -5.071221|   -5.505228|   -5.504931|   -5.090399|   -6.358671|    3.711003|
|          54|  3.5168e+00|  4.5470e-20|  1.2412e-03|  5.0000e-04|  5.0000e-04|  5.0000e-04|   -4.881314|   -5.071217|   -5.505230|   -5.504934|   -5.090412|   -6.358851|    3.710971|
|          55|  3.5035e+00|  4.5470e-20|  1.2412e-03|  5.0000e-04|  5.0000e-04|  5.0000e-04|   -4.881327|   -5.071212|   -5.505232|   -5.504936|   -5.090426|   -6.359032|    3.710940|
|          56|  3.4949e+00|  4.5470e-20|  1.2412e-03|  5.0000e-04|  5.0000e-04|  5.0000e-04|   -4.881340|   -5.071207|   -5.505235|   -5.504938|   -5.090439|   -6.359212|    3.710909|
|          57|  3.4886e+00|  4.5470e-20|  1.2412e-03|  5.0000e-04|  5.0000e-04|  5.0000e-04|   -4.881353|   -5.071202|   -5.505237|   -5.504940|   -5.090453|   -6.359392|    3.710877|
|          58|  3.4778e+00|  4.5470e-20|  1.2412e-03|  5.0000e-04|  5.0000e-04|  5.0000e-04|   -4.881367|   -5.071198|   -5.505239|   -5.504943|   -5.090466|   -6.359572|    3.710846|
|          59|  3.4660e+00|  4.5470e-20|  1.2412e-03|  5.0000e-04|  5.0000e-04|  5.0000e-04|   -4.881380|   -5.071193|   -5.505242|   -5.504945|   -5.090479|   -6.359752|    3.710815|
|          60|  3.4608e+00|  4.5470e-20|  1.2412e-03|  5.0000e-04|  5.0000e-04|  5.0000e-04|   -4.881393|   -5.071188|   -5.505244|   -5.504947|   -5.090493|   -6.359932|    3.710783|
|          61|  3.4503e+00|  4.5470e-20|  1.2412e-03|  5.0000e-04|  5.0000e-04|  5.0000e-04|   -4.881406|   -5.071183|   -5.505246|   -5.504950|   -5.090506|   -6.360112|    3.710752|
|          62|  3.4387e+00|  4.5470e-20|  1.2412e-03|  5.0000e-04|  5.0000e-04|  5.0000e-04|   -4.881419|   -5.071178|   -5.505249|   -5.504952|   -5.090519|   -6.360292|    3.710720|
|          63|  3.4313e+00|  4.5470e-20|  1.2412e-03|  5.0000e-04|  5.0000e-04|  5.0000e-04|   -4.881433|   -5.071174|   -5.505251|   -5.504954|   -5.090533|   -6.360472|    3.710689|
|          64|  3.4231e+00|  4.5470e-20|  1.2412e-03|  5.0000e-04|  5.0000e-04|  5.0000e-04|   -4.881446|   -5.071169|   -5.505253|   -5.504956|   -5.090546|   -6.360652|    3.710658|
|          65|  3.4139e+00|  4.5470e-20|  1.2412e-03|  5.0000e-04|  5.0000e-04|  5.0000e-04|   -4.881459|   -5.071164|   -5.505255|   -5.504959|   -5.090559|   -6.360832|    3.710626|
|          66|  3.4046e+00|  4.5470e-20|  1.2412e-03|  5.0000e-04|  5.0000e-04|  5.0000e-04|   -4.881472|   -5.071159|   -5.505258|   -5.504961|   -5.090573|   -6.361012|    3.710595|
|          67|  3.4018e+00|  4.5470e-20|  1.2412e-03|  5.0000e-04|  5.0000e-04|  5.0000e-04|   -4.881485|   -5.071155|   -5.505260|   -5.504963|   -5.090586|   -6.361192|    3.710563|
|          68|  3.3983e+00|  4.5470e-20|  1.2412e-03|  5.0000e-04|  5.0000e-04|  5.0000e-04|   -4.881499|   -5.071150|   -5.505262|   -5.504966|   -5.090599|   -6.361372|    3.710532|
|          69|  3.3942e+00|  4.5470e-20|  1.2412e-03|  5.0000e-04|  5.0000e-04|  5.0000e-04|   -4.881512|   -5.071145|   -5.505265|   -5.504968|   -5.090613|   -6.361552|    3.710501|
|          70|  3.3902e+00|  4.5470e-20|  1.2412e-03|  5.0000e-04|  5.0000e-04|  5.0000e-04|   -4.881525|   -5.071140|   -5.505267|   -5.504970|   -5.090626|   -6.361731|    3.710469|
|          71|  3.3859e+00|  4.5470e-20|  1.2412e-03|  5.0000e-04|  5.0000e-04|  5.0000e-04|   -4.881538|   -5.071136|   -5.505269|   -5.504972|   -5.090639|   -6.361913|    3.710438|
|          72|  3.3826e+00|  4.5470e-20|  1.2412e-03|  5.0000e-04|  5.0000e-04|  5.0000e-04|   -4.881551|   -5.071131|   -5.505271|   -5.504975|   -5.090653|   -6.362092|    3.710406|
|          73|  3.3789e+00|  4.5470e-20|  1.2412e-03|  5.0000e-04|  5.0000e-04|  5.0000e-04|   -4.881564|   -5.071126|   -5.505274|   -5.504977|   -5.090666|   -6.362272|    3.710375|
|          74|  3.3770e+00|  4.5470e-20|  1.2412e-03|  5.0000e-04|  5.0000e-04|  5.0000e-04|   -4.881578|   -5.071121|   -5.505276|   -5.504979|   -5.090680|   -6.362452|    3.710344|
|          75|  3.3758e+00|  4.5470e-20|  1.2412e-03|  5.0000e-04|  5.0000e-04|  5.0000e-04|   -4.881591|   -5.071116|   -5.505278|   -5.504982|   -5.090693|   -6.362631|    3.710312|
|          76|  3.3716e+00|  4.5470e-20|  1.2412e-03|  5.0000e-04|  5.0000e-04|  5.0000e-04|   -4.881604|   -5.071112|   -5.505281|   -5.504984|   -5.090706|   -6.362811|    3.710281|
|          77|  3.3723e+00|  4.5470e-20|  1.2412e-03|  5.0000e-04|  5.0000e-04|  5.0000e-04|   -4.881617|   -5.071107|   -5.505283|   -5.504986|   -5.090720|   -6.362990|    3.710249|
|          78|  3.3704e+00|  4.5470e-20|  1.2412e-03|  5.0000e-04|  5.0000e-04|  5.0000e-04|   -4.881630|   -5.071102|   -5.505285|   -5.504988|   -5.090733|   -6.363170|    3.710218|
|          79|  3.3686e+00|  4.5470e-20|  1.2412e-03|  5.0000e-04|  5.0000e-04|  5.0000e-04|   -4.881643|   -5.071097|   -5.505288|   -5.504991|   -5.090746|   -6.363349|    3.710186|
|          80|  3.3675e+00|  4.5470e-20|  1.2412e-03|  5.0000e-04|  5.0000e-04|  5.0000e-04|   -4.881657|   -5.071093|   -5.505290|   -5.504993|   -5.090760|   -6.363528|    3.710155|
|          81|  3.3654e+00|  4.5470e-20|  1.2412e-03|  5.0000e-04|  5.0000e-04|  5.0000e-04|   -4.881670|   -5.071088|   -5.505292|   -5.504995|   -5.090773|   -6.363708|    3.710124|
|          82|  3.3640e+00|  4.5470e-20|  1.2412e-03|  5.0000e-04|  5.0000e-04|  5.0000e-04|   -4.881683|   -5.071083|   -5.505294|   -5.504998|   -5.090786|   -6.363887|    3.710092|
|          83|  3.3622e+00|  4.5470e-20|  1.2412e-03|  5.0000e-04|  5.0000e-04|  5.0000e-04|   -4.881696|   -5.071078|   -5.505297|   -5.505000|   -5.090799|   -6.364066|    3.710061|
|          84|  3.3603e+00|  4.5470e-20|  1.2412e-03|  5.0000e-04|  5.0000e-04|  5.0000e-04|   -4.881709|   -5.071074|   -5.505299|   -5.505002|   -5.090813|   -6.364245|    3.710029|
|          85|  3.3596e+00|  4.5470e-20|  1.2412e-03|  5.0000e-04|  5.0000e-04|  5.0000e-04|   -4.881722|   -5.071069|   -5.505301|   -5.505004|   -5.090826|   -6.364425|    3.709998|
|          86|  3.3608e+00|  4.5470e-20|  1.2412e-03|  5.0000e-04|  5.0000e-04|  5.0000e-04|   -4.881735|   -5.071064|   -5.505304|   -5.505007|   -5.090839|   -6.364604|    3.709966|
|          87|  3.3644e+00|  4.5470e-20|  1.2412e-03|  5.0000e-04|  5.0000e-04|  5.0000e-04|   -4.881749|   -5.071059|   -5.505306|   -5.505009|   -5.090853|   -6.364783|    3.709935|
|          88|  3.3624e+00|  4.5470e-20|  1.2412e-03|  5.0000e-04|  5.0000e-04|  5.0000e-04|   -4.881762|   -5.071055|   -5.505308|   -5.505011|   -5.090866|   -6.364962|    3.709904|
|          89|  3.3638e+00|  4.5470e-20|  1.2412e-03|  5.0000e-04|  5.0000e-04|  5.0000e-04|   -4.881775|   -5.071050|   -5.505310|   -5.505014|   -5.090879|   -6.365142|    3.709872|
|          90|  3.3626e+00|  4.5470e-20|  1.2412e-03|  5.0000e-04|  5.0000e-04|  5.0000e-04|   -4.881788|   -5.071045|   -5.505313|   -5.505016|   -5.090893|   -6.365322|    3.709841|
|          91|  3.3625e+00|  4.5470e-20|  1.2412e-03|  5.0000e-04|  5.0000e-04|  5.0000e-04|   -4.881801|   -5.071040|   -5.505315|   -5.505018|   -5.090906|   -6.365500|    3.709809|
|          92|  3.3620e+00|  4.5470e-20|  1.2412e-03|  5.0000e-04|  5.0000e-04|  5.0000e-04|   -4.881814|   -5.071036|   -5.505317|   -5.505020|   -5.090919|   -6.365679|    3.709778|
|          93|  3.3593e+00|  4.5470e-20|  1.2412e-03|  5.0000e-04|  5.0000e-04|  5.0000e-04|   -4.881827|   -5.071031|   -5.505320|   -5.505023|   -5.090933|   -6.365859|    3.709746|
|          94|  3.3564e+00|  4.5470e-20|  1.2412e-03|  5.0000e-04|  5.0000e-04|  5.0000e-04|   -4.881840|   -5.071026|   -5.505322|   -5.505025|   -5.090946|   -6.366038|    3.709715|
|          95|  3.3536e+00|  4.5470e-20|  1.2412e-03|  5.0000e-04|  5.0000e-04|  5.0000e-04|   -4.881854|   -5.071021|   -5.505324|   -5.505027|   -5.090959|   -6.366218|    3.709683|
|          96|  3.3511e+00|  4.5470e-20|  1.2412e-03|  5.0000e-04|  5.0000e-04|  5.0000e-04|   -4.881867|   -5.071017|   -5.505327|   -5.505030|   -5.090973|   -6.366397|    3.709652|
|          97|  3.3482e+00|  4.5470e-20|  1.2412e-03|  5.0000e-04|  5.0000e-04|  5.0000e-04|   -4.881880|   -5.071012|   -5.505329|   -5.505032|   -5.090986|   -6.366577|    3.709620|
|          98|  3.3473e+00|  4.5470e-20|  1.2412e-03|  5.0000e-04|  5.0000e-04|  5.0000e-04|   -4.881893|   -5.071007|   -5.505331|   -5.505034|   -5.090999|   -6.366756|    3.709589|
|          99|  3.3446e+00|  4.5470e-20|  1.2412e-03|  5.0000e-04|  5.0000e-04|  5.0000e-04|   -4.881906|   -5.071002|   -5.505333|   -5.505036|   -5.091012|   -6.366936|    3.709557|
|         100|  3.3422e+00|  4.5470e-20|  1.2412e-03|  5.0000e-04|  5.0000e-04|  5.0000e-04|   -4.881919|   -5.070998|   -5.505336|   -5.505039|   -5.091026|   -6.367116|    3.709526|
|         101|  3.3398e+00|  4.5470e-20|  1.2412e-03|  5.0000e-04|  5.0000e-04|  5.0000e-04|   -4.881932|   -5.070993|   -5.505338|   -5.505041|   -5.091039|   -6.367296|    3.709494|
|         102|  3.3376e+00|  4.5470e-20|  1.2412e-03|  5.0000e-04|  5.0000e-04|  5.0000e-04|   -4.881945|   -5.070988|   -5.505340|   -5.505043|   -5.091052|   -6.367476|    3.709463|
|         103|  3.3365e+00|  4.5470e-20|  1.2412e-03|  5.0000e-04|  5.0000e-04|  5.0000e-04|   -4.881958|   -5.070984|   -5.505343|   -5.505046|   -5.091066|   -6.367656|    3.709431|
|         104|  3.3338e+00|  4.5470e-20|  1.2412e-03|  5.0000e-04|  5.0000e-04|  5.0000e-04|   -4.881972|   -5.070979|   -5.505345|   -5.505048|   -5.091079|   -6.367835|    3.709400|
|         105|  3.3329e+00|  4.5470e-20|  1.2412e-03|  5.0000e-04|  5.0000e-04|  5.0000e-04|   -4.881985|   -5.070974|   -5.505347|   -5.505050|   -5.091092|   -6.368015|    3.709368|
|         106|  3.3317e+00|  4.5470e-20|  1.2412e-03|  5.0000e-04|  5.0000e-04|  5.0000e-04|   -4.881998|   -5.070969|   -5.505349|   -5.505052|   -5.091105|   -6.368194|    3.709337|
|         107|  3.3313e+00|  4.5470e-20|  1.2412e-03|  5.0000e-04|  5.0000e-04|  5.0000e-04|   -4.882011|   -5.070965|   -5.505352|   -5.505055|   -5.091119|   -6.368373|    3.709305|
|         108|  3.3292e+00|  4.5470e-20|  1.2412e-03|  5.0000e-04|  5.0000e-04|  5.0000e-04|   -4.882024|   -5.070960|   -5.505354|   -5.505057|   -5.091132|   -6.368552|    3.709274|
|         109|  3.3277e+00|  4.5470e-20|  1.2412e-03|  5.0000e-04|  5.0000e-04|  5.0000e-04|   -4.882037|   -5.070955|   -5.505356|   -5.505059|   -5.091145|   -6.368731|    3.709242|
|         110|  3.3265e+00|  4.5470e-20|  1.2412e-03|  5.0000e-04|  5.0000e-04|  5.0000e-04|   -4.882050|   -5.070950|   -5.505359|   -5.505061|   -5.091159|   -6.368909|    3.709211|
|         111|  3.3255e+00|  4.5470e-20|  1.2412e-03|  5.0000e-04|  5.0000e-04|  5.0000e-04|   -4.882063|   -5.070946|   -5.505361|   -5.505064|   -5.091172|   -6.369087|    3.709179|
|         112|  3.3258e+00|  4.5470e-20|  1.2412e-03|  5.0000e-04|  5.0000e-04|  5.0000e-04|   -4.882076|   -5.070941|   -5.505363|   -5.505066|   -5.091185|   -6.369265|    3.709148|
|         113|  3.3239e+00|  4.5470e-20|  1.2412e-03|  5.0000e-04|  5.0000e-04|  5.0000e-04|   -4.882089|   -5.070936|   -5.505365|   -5.505068|   -5.091198|   -6.369443|    3.709116|
|         114|  3.3227e+00|  4.5470e-20|  1.2412e-03|  5.0000e-04|  5.0000e-04|  5.0000e-04|   -4.882102|   -5.070932|   -5.505368|   -5.505071|   -5.091212|   -6.369621|    3.709085|
|         115|  3.3226e+00|  4.5470e-20|  1.2412e-03|  5.0000e-04|  5.0000e-04|  5.0000e-04|   -4.882115|   -5.070927|   -5.505370|   -5.505073|   -5.091225|   -6.369814|    3.709053|
|         116|  3.3212e+00|  4.5470e-20|  1.2412e-03|  5.0000e-04|  5.0000e-04|  5.0000e-04|   -4.882129|   -5.070922|   -5.505372|   -5.505075|   -5.091238|   -6.369979|    3.709022|
|         117|  3.3213e+00|  4.5470e-20|  1.2412e-03|  5.0000e-04|  5.0000e-04|  5.0000e-04|   -4.882142|   -5.070917|   -5.505375|   -5.505077|   -5.091251|   -6.371283|    3.708990|
|         118|  3.3213e+00|  4.6764e-20|  1.2412e-03|  5.0000e-04|  5.0000e-04|  5.0000e-04|   -4.882155|   -5.070913|   -5.505377|   -5.505080|   -5.091265|   -6.371984|    3.708959|
|         119|  3.3210e+00|  4.6496e-20|  1.2412e-03|  5.0000e-04|  5.0000e-04|  5.0000e-04|   -4.882168|   -5.070908|   -5.505379|   -5.505082|   -5.091278|   -6.372520|    3.708927|
|         120|  3.3204e+00|  4.6990e-20|  1.2412e-03|  5.0000e-04|  5.0000e-04|  5.0000e-04|   -4.882181|   -5.070903|   -5.505381|   -5.505084|   -5.091291|   -6.372780|    3.708896|
|         121|  3.3210e+00|  4.7077e-20|  1.2412e-03|  5.0000e-04|  5.0000e-04|  5.0000e-04|   -4.882194|   -5.070899|   -5.505384|   -5.505087|   -5.091304|   -6.373252|    3.708864|
|         122|  3.3208e+00|  4.7239e-20|  1.2412e-03|  5.0000e-04|  5.0000e-04|  5.0000e-04|   -4.882207|   -5.070894|   -5.505386|   -5.505089|   -5.091318|   -6.373628|    3.708833|
|         123|  3.3209e+00|  4.7320e-20|  1.2412e-03|  5.0000e-04|  5.0000e-04|  5.0000e-04|   -4.882220|   -5.070889|   -5.505388|   -5.505091|   -5.091331|   -6.374131|    3.708801|
|         124|  3.3214e+00|  4.7392e-20|  1.2412e-03|  5.0000e-04|  5.0000e-04|  5.0000e-04|   -4.882233|   -5.070884|   -5.505391|   -5.505093|   -5.091344|   -6.374748|    3.708770|
|         125|  3.3221e+00|  4.7441e-20|  1.2412e-03|  5.0000e-04|  5.0000e-04|  5.0000e-04|   -4.882246|   -5.070880|   -5.505393|   -5.505096|   -5.091357|   -6.375387|    3.708738|
|         126|  3.3225e+00|  4.7478e-20|  1.2412e-03|  5.0000e-04|  5.0000e-04|  5.0000e-04|   -4.882259|   -5.070875|   -5.505395|   -5.505098|   -5.091371|   -6.376229|    3.708706|
|         127|  3.3230e+00|  4.7506e-20|  1.2412e-03|  5.0000e-04|  5.0000e-04|  5.0000e-04|   -4.882272|   -5.070870|   -5.505397|   -5.505100|   -5.091384|   -6.377283|    3.708675|
|         128|  3.3238e+00|  4.7527e-20|  1.2412e-03|  5.0000e-04|  5.0000e-04|  5.0000e-04|   -4.882285|   -5.070866|   -5.505400|   -5.505102|   -5.091397|   -6.378611|    3.708643|
|         129|  3.3249e+00|  4.7542e-20|  1.2412e-03|  5.0000e-04|  5.0000e-04|  5.0000e-04|   -4.882298|   -5.070861|   -5.505402|   -5.505105|   -5.091410|   -6.380291|    3.708612|
|         130|  3.3256e+00|  4.7554e-20|  1.2412e-03|  5.0000e-04|  5.0000e-04|  5.0000e-04|   -4.882311|   -5.070856|   -5.505404|   -5.505107|   -5.091424|   -6.382420|    3.708580|
|         131|  3.3262e+00|  4.7562e-20|  1.2412e-03|  5.0000e-04|  5.0000e-04|  5.0000e-04|   -4.882324|   -5.070852|   -5.505407|   -5.505109|   -5.091437|   -6.385108|    3.708549|
|         132|  3.3276e+00|  4.7568e-20|  1.2412e-03|  5.0000e-04|  5.0000e-04|  5.0000e-04|   -4.882337|   -5.070847|   -5.505409|   -5.505112|   -5.091450|   -6.388468|    3.708517|
|         133|  3.3272e+00|  4.7573e-20|  1.2412e-03|  5.0000e-04|  5.0000e-04|  5.0000e-04|   -4.882350|   -5.070842|   -5.505411|   -5.505114|   -5.091463|   -6.392539|    3.708486|
|         134|  3.3286e+00|  4.7576e-20|  1.2412e-03|  5.0000e-04|  5.0000e-04|  5.0000e-04|   -4.882363|   -5.070837|   -5.505413|   -5.505116|   -5.091477|   -6.397338|    3.708454|
|         135|  3.3275e+00|  4.7579e-20|  1.2412e-03|  5.0000e-04|  5.0000e-04|  5.0000e-04|   -4.882376|   -5.070833|   -5.505416|   -5.505118|   -5.091490|   -6.402839|    3.708422|
|         136|  3.3286e+00|  4.7581e-20|  1.2412e-03|  5.0000e-04|  5.0000e-04|  5.0000e-04|   -4.882389|   -5.070828|   -5.505418|   -5.505121|   -5.091503|   -6.408969|    3.708391|
|         137|  3.3303e+00|  4.7582e-20|  1.2412e-03|  5.0000e-04|  5.0000e-04|  5.0000e-04|   -4.882402|   -5.070823|   -5.505420|   -5.505123|   -5.091516|   -6.415593|    3.708359|
|         138|  3.3276e+00|  4.7584e-20|  1.2412e-03|  5.0000e-04|  5.0000e-04|  5.0000e-04|   -4.882415|   -5.070819|   -5.505423|   -5.505125|   -5.091529|   -6.422518|    3.708328|
|         139|  3.3257e+00|  4.7585e-20|  1.2412e-03|  5.0000e-04|  5.0000e-04|  5.0000e-04|   -4.882428|   -5.070814|   -5.505425|   -5.505128|   -5.091543|   -6.429495|    3.708296|
|         140|  3.3265e+00|  4.7585e-20|  1.2412e-03|  5.0000e-04|  5.0000e-04|  5.0000e-04|   -4.882441|   -5.070809|   -5.505427|   -5.505130|   -5.091556|   -6.436242|    3.708265|
|         141|  3.3260e+00|  4.7586e-20|  1.2412e-03|  5.0000e-04|  5.0000e-04|  5.0000e-04|   -4.882454|   -5.070805|   -5.505429|   -5.505132|   -5.091569|   -6.442482|    3.708233|
|         142|  3.3271e+00|  4.7587e-20|  1.2412e-03|  5.0000e-04|  5.0000e-04|  5.0000e-04|   -4.882467|   -5.070800|   -5.505432|   -5.505134|   -5.091582|   -6.447975|    3.708201|
|         143|  3.3280e+00|  4.7587e-20|  1.2412e-03|  5.0000e-04|  5.0000e-04|  5.0000e-04|   -4.882480|   -5.070795|   -5.505434|   -5.505137|   -5.091596|   -6.452557|    3.708170|
|         144|  3.3289e+00|  4.7587e-20|  1.2412e-03|  5.0000e-04|  5.0000e-04|  5.0000e-04|   -4.882493|   -5.070791|   -5.505436|   -5.505139|   -5.091609|   -6.456165|    3.708138|
|         145|  3.3293e+00|  4.7588e-20|  1.2412e-03|  5.0000e-04|  5.0000e-04|  5.0000e-04|   -4.882506|   -5.070786|   -5.505439|   -5.505141|   -5.091622|   -6.458834|    3.708107|
|         146|  3.3299e+00|  4.7588e-20|  1.2412e-03|  5.0000e-04|  5.0000e-04|  5.0000e-04|   -4.882519|   -5.070781|   -5.505441|   -5.505143|   -5.091635|   -6.460683|    3.708075|
|         147|  3.3305e+00|  4.7588e-20|  1.2412e-03|  5.0000e-04|  5.0000e-04|  5.0000e-04|   -4.882532|   -5.070776|   -5.505443|   -5.505146|   -5.091648|   -6.461882|    3.708043|
|         148|  3.3311e+00|  4.7588e-20|  1.2412e-03|  5.0000e-04|  5.0000e-04|  5.0000e-04|   -4.882545|   -5.070772|   -5.505445|   -5.505148|   -5.091662|   -6.462616|    3.708012|
|         149|  3.3305e+00|  4.7589e-20|  1.2412e-03|  5.0000e-04|  5.0000e-04|  5.0000e-04|   -4.882558|   -5.070767|   -5.505448|   -5.505150|   -5.091675|   -6.463050|    3.707980|
|         150|  3.3326e+00|  4.7589e-20|  1.2412e-03|  5.0000e-04|  5.0000e-04|  5.0000e-04|   -4.882571|   -5.070762|   -5.505450|   -5.505153|   -5.091688|   -6.463311|    3.707949|
+-----------------------------------------------------------------------+
|        File Writing Summary       |              Filename             |
+-----------------------------------------------------------------------+
|SU2 binary restart                 |restart_flow.dat                   |
|Paraview                           |flow.vtu                           |
|Paraview surface                   |surface_flow.vtu                   |
+-----------------------------------------------------------------------+
+-------------------------------------------------------------------------------------------------------------------------------------------------------------------------------------+
|  Inner_Iter|   Time(sec)|      Min DT|      Max DT|     Min CFL|     Max CFL|     Avg CFL|    rms[Rho]|   rms[RhoU]|   rms[RhoV]|   rms[RhoW]|   rms[RhoE]|     rms[nu]|          CD|
+-------------------------------------------------------------------------------------------------------------------------------------------------------------------------------------+
|         151|  3.4306e+00|  4.7589e-20|  1.2412e-03|  5.0000e-04|  5.0000e-04|  5.0000e-04|   -4.882584|   -5.070758|   -5.505452|   -5.505155|   -5.091701|   -6.463485|    3.707917|
|         152|  3.4342e+00|  4.7589e-20|  1.2412e-03|  5.0000e-04|  5.0000e-04|  5.0000e-04|   -4.882597|   -5.070753|   -5.505455|   -5.505157|   -5.091714|   -6.463620|    3.707885|
|         153|  3.4359e+00|  4.7589e-20|  1.2412e-03|  5.0000e-04|  5.0000e-04|  5.0000e-04|   -4.882610|   -5.070748|   -5.505457|   -5.505159|   -5.091728|   -6.463740|    3.707854|
|         154|  3.4321e+00|  4.7589e-20|  1.2412e-03|  5.0000e-04|  5.0000e-04|  5.0000e-04|   -4.882623|   -5.070744|   -5.505459|   -5.505162|   -5.091741|   -6.463855|    3.707822|
|         155|  3.4259e+00|  4.7589e-20|  1.2412e-03|  5.0000e-04|  5.0000e-04|  5.0000e-04|   -4.882636|   -5.070739|   -5.505461|   -5.505164|   -5.091754|   -6.463968|    3.707791|
|         156|  3.4265e+00|  4.7589e-20|  1.2412e-03|  5.0000e-04|  5.0000e-04|  5.0000e-04|   -4.882649|   -5.070734|   -5.505464|   -5.505166|   -5.091767|   -6.464081|    3.707759|
|         157|  3.4231e+00|  4.7589e-20|  1.2412e-03|  5.0000e-04|  5.0000e-04|  5.0000e-04|   -4.882662|   -5.070730|   -5.505466|   -5.505168|   -5.091780|   -6.464200|    3.707727|
|         158|  3.4241e+00|  4.7589e-20|  1.2412e-03|  5.0000e-04|  5.0000e-04|  5.0000e-04|   -4.882675|   -5.070725|   -5.505468|   -5.505171|   -5.091794|   -6.464310|    3.707696|
|         159|  3.4212e+00|  4.7589e-20|  1.2412e-03|  5.0000e-04|  5.0000e-04|  5.0000e-04|   -4.882688|   -5.070720|   -5.505471|   -5.505173|   -5.091807|   -6.464423|    3.707664|
|         160|  3.4217e+00|  4.7589e-20|  1.2412e-03|  5.0000e-04|  5.0000e-04|  5.0000e-04|   -4.882701|   -5.070716|   -5.505473|   -5.505175|   -5.091820|   -6.464536|    3.707632|
|         161|  3.4214e+00|  4.7589e-20|  1.2412e-03|  5.0000e-04|  5.0000e-04|  5.0000e-04|   -4.882714|   -5.070711|   -5.505475|   -5.505178|   -5.091833|   -6.464649|    3.707601|
|         162|  3.4216e+00|  4.7589e-20|  1.2412e-03|  5.0000e-04|  5.0000e-04|  5.0000e-04|   -4.882727|   -5.070706|   -5.505477|   -5.505180|   -5.091846|   -6.464762|    3.707569|
|         163|  3.4196e+00|  4.7589e-20|  1.2412e-03|  5.0000e-04|  5.0000e-04|  5.0000e-04|   -4.882740|   -5.070702|   -5.505480|   -5.505182|   -5.091859|   -6.464874|    3.707537|
|         164|  3.4198e+00|  4.7589e-20|  1.2412e-03|  5.0000e-04|  5.0000e-04|  5.0000e-04|   -4.882753|   -5.070697|   -5.505482|   -5.505184|   -5.091873|   -6.464987|    3.707506|
|         165|  3.4188e+00|  4.7589e-20|  1.2412e-03|  5.0000e-04|  5.0000e-04|  5.0000e-04|   -4.882766|   -5.070692|   -5.505484|   -5.505187|   -5.091886|   -6.465100|    3.707474|
|         166|  3.4179e+00|  4.7589e-20|  1.2412e-03|  5.0000e-04|  5.0000e-04|  5.0000e-04|   -4.882779|   -5.070688|   -5.505487|   -5.505189|   -5.091899|   -6.465213|    3.707443|
|         167|  3.4184e+00|  4.7589e-20|  1.2412e-03|  5.0000e-04|  5.0000e-04|  5.0000e-04|   -4.882792|   -5.070683|   -5.505489|   -5.505191|   -5.091912|   -6.465326|    3.707411|
|         168|  3.4189e+00|  4.7589e-20|  1.2412e-03|  5.0000e-04|  5.0000e-04|  5.0000e-04|   -4.882804|   -5.070678|   -5.505491|   -5.505193|   -5.091925|   -6.465438|    3.707379|
|         169|  3.4193e+00|  4.7589e-20|  1.2412e-03|  5.0000e-04|  5.0000e-04|  5.0000e-04|   -4.882817|   -5.070674|   -5.505493|   -5.505196|   -5.091939|   -6.465551|    3.707348|
|         170|  3.4206e+00|  4.7589e-20|  1.2412e-03|  5.0000e-04|  5.0000e-04|  5.0000e-04|   -4.882830|   -5.070669|   -5.505496|   -5.505198|   -5.091952|   -6.465664|    3.707316|
|         171|  3.4205e+00|  4.7589e-20|  1.2412e-03|  5.0000e-04|  5.0000e-04|  5.0000e-04|   -4.882843|   -5.070664|   -5.505498|   -5.505200|   -5.091965|   -6.465776|    3.707284|
|         172|  3.4217e+00|  4.7589e-20|  1.2412e-03|  5.0000e-04|  5.0000e-04|  5.0000e-04|   -4.882856|   -5.070660|   -5.505500|   -5.505202|   -5.091978|   -6.465889|    3.707253|
|         173|  3.4225e+00|  4.7589e-20|  1.2412e-03|  5.0000e-04|  5.0000e-04|  5.0000e-04|   -4.882869|   -5.070655|   -5.505502|   -5.505205|   -5.091991|   -6.466001|    3.707221|
|         174|  3.4238e+00|  4.7589e-20|  1.2412e-03|  5.0000e-04|  5.0000e-04|  5.0000e-04|   -4.882882|   -5.070651|   -5.505505|   -5.505207|   -5.092004|   -6.466114|    3.707189|
|         175|  3.4248e+00|  4.7589e-20|  1.2412e-03|  5.0000e-04|  5.0000e-04|  5.0000e-04|   -4.882895|   -5.070646|   -5.505507|   -5.505209|   -5.092017|   -6.466226|    3.707158|
|         176|  3.4255e+00|  4.7589e-20|  1.2412e-03|  5.0000e-04|  5.0000e-04|  5.0000e-04|   -4.882908|   -5.070641|   -5.505509|   -5.505212|   -5.092031|   -6.466338|    3.707126|
|         177|  3.4258e+00|  4.7589e-20|  1.2412e-03|  5.0000e-04|  5.0000e-04|  5.0000e-04|   -4.882921|   -5.070637|   -5.505512|   -5.505214|   -5.092044|   -6.466451|    3.707094|
|         178|  3.4259e+00|  4.7589e-20|  1.2412e-03|  5.0000e-04|  5.0000e-04|  5.0000e-04|   -4.882934|   -5.070632|   -5.505514|   -5.505216|   -5.092057|   -6.466563|    3.707063|
|         179|  3.4273e+00|  4.7589e-20|  1.2412e-03|  5.0000e-04|  5.0000e-04|  5.0000e-04|   -4.882947|   -5.070627|   -5.505516|   -5.505218|   -5.092070|   -6.466678|    3.707031|
|         180|  3.4281e+00|  4.7589e-20|  1.2412e-03|  5.0000e-04|  5.0000e-04|  5.0000e-04|   -4.882959|   -5.070623|   -5.505518|   -5.505221|   -5.092083|   -6.466788|    3.706999|
|         181|  3.4285e+00|  4.7589e-20|  1.2412e-03|  5.0000e-04|  5.0000e-04|  5.0000e-04|   -4.882972|   -5.070618|   -5.505521|   -5.505223|   -5.092096|   -6.466902|    3.706968|
|         182|  3.4287e+00|  4.7589e-20|  1.2412e-03|  5.0000e-04|  5.0000e-04|  5.0000e-04|   -4.882985|   -5.070613|   -5.505523|   -5.505225|   -5.092109|   -6.467015|    3.706936|
|         183|  3.4289e+00|  4.7589e-20|  1.2412e-03|  5.0000e-04|  5.0000e-04|  5.0000e-04|   -4.882998|   -5.070609|   -5.505525|   -5.505227|   -5.092123|   -6.467127|    3.706904|
|         184|  3.4286e+00|  4.7589e-20|  1.2412e-03|  5.0000e-04|  5.0000e-04|  5.0000e-04|   -4.883011|   -5.070604|   -5.505528|   -5.505230|   -5.092136|   -6.467240|    3.706872|
|         185|  3.4282e+00|  4.7589e-20|  1.2412e-03|  5.0000e-04|  5.0000e-04|  5.0000e-04|   -4.883024|   -5.070599|   -5.505530|   -5.505232|   -5.092149|   -6.467352|    3.706841|
|         186|  3.4277e+00|  4.7589e-20|  1.2412e-03|  5.0000e-04|  5.0000e-04|  5.0000e-04|   -4.883037|   -5.070595|   -5.505532|   -5.505234|   -5.092162|   -6.467464|    3.706809|
|         187|  3.4272e+00|  4.7589e-20|  1.2412e-03|  5.0000e-04|  5.0000e-04|  5.0000e-04|   -4.883050|   -5.070590|   -5.505534|   -5.505236|   -5.092175|   -6.467577|    3.706777|
|         188|  3.4262e+00|  4.7589e-20|  1.2412e-03|  5.0000e-04|  5.0000e-04|  5.0000e-04|   -4.883063|   -5.070586|   -5.505537|   -5.505239|   -5.092188|   -6.467689|    3.706746|
|         189|  3.4268e+00|  4.7589e-20|  1.2412e-03|  5.0000e-04|  5.0000e-04|  5.0000e-04|   -4.883075|   -5.070581|   -5.505539|   -5.505241|   -5.092201|   -6.467969|    3.706714|
|         190|  3.4268e+00|  4.7589e-20|  1.2412e-03|  5.0000e-04|  5.0000e-04|  5.0000e-04|   -4.883088|   -5.070576|   -5.505541|   -5.505243|   -5.092215|   -6.467990|    3.706682|
|         191|  3.4273e+00|  4.7589e-20|  1.2412e-03|  5.0000e-04|  5.0000e-04|  5.0000e-04|   -4.883101|   -5.070572|   -5.505543|   -5.505246|   -5.092228|   -6.468066|    3.706651|
|         192|  3.4278e+00|  4.7589e-20|  1.2412e-03|  5.0000e-04|  5.0000e-04|  5.0000e-04|   -4.883114|   -5.070567|   -5.505546|   -5.505248|   -5.092241|   -6.468180|    3.706619|
|         193|  3.4277e+00|  4.7589e-20|  1.2412e-03|  5.0000e-04|  5.0000e-04|  5.0000e-04|   -4.883127|   -5.070562|   -5.505548|   -5.505250|   -5.092254|   -6.468291|    3.706587|
|         194|  3.4283e+00|  4.7589e-20|  1.2412e-03|  5.0000e-04|  5.0000e-04|  5.0000e-04|   -4.883140|   -5.070558|   -5.505550|   -5.505252|   -5.092267|   -6.468404|    3.706555|
|         195|  3.4283e+00|  4.7589e-20|  1.2412e-03|  5.0000e-04|  5.0000e-04|  5.0000e-04|   -4.883153|   -5.070553|   -5.505553|   -5.505255|   -5.092280|   -6.468517|    3.706524|
|         196|  3.4283e+00|  4.7589e-20|  1.2412e-03|  5.0000e-04|  5.0000e-04|  5.0000e-04|   -4.883165|   -5.070549|   -5.505555|   -5.505257|   -5.092293|   -6.468630|    3.706492|
|         197|  3.4278e+00|  4.7589e-20|  1.2412e-03|  5.0000e-04|  5.0000e-04|  5.0000e-04|   -4.883178|   -5.070544|   -5.505557|   -5.505259|   -5.092306|   -6.468816|    3.706460|
|         198|  3.4275e+00|  4.7589e-20|  1.2412e-03|  5.0000e-04|  5.0000e-04|  5.0000e-04|   -4.883191|   -5.070539|   -5.505559|   -5.505261|   -5.092319|   -6.468889|    3.706429|
|         199|  3.4266e+00|  4.7589e-20|  1.2412e-03|  5.0000e-04|  5.0000e-04|  5.0000e-04|   -4.883204|   -5.070535|   -5.505562|   -5.505264|   -5.092333|   -6.469035|    3.706397|
|         200|  3.4268e+00|  4.7589e-20|  1.2412e-03|  5.0000e-04|  5.0000e-04|  5.0000e-04|   -4.883217|   -5.070530|   -5.505564|   -5.505266|   -5.092346|   -6.469140|    3.706365|
|         201|  3.4265e+00|  4.7589e-20|  1.2412e-03|  5.0000e-04|  5.0000e-04|  5.0000e-04|   -4.883230|   -5.070525|   -5.505566|   -5.505268|   -5.092359|   -6.469262|    3.706333|
|         202|  3.4262e+00|  4.7589e-20|  1.2412e-03|  5.0000e-04|  5.0000e-04|  5.0000e-04|   -4.883243|   -5.070521|   -5.505568|   -5.505270|   -5.092372|   -6.469374|    3.706302|
|         203|  3.4260e+00|  4.7589e-20|  1.2412e-03|  5.0000e-04|  5.0000e-04|  5.0000e-04|   -4.883255|   -5.070516|   -5.505571|   -5.505273|   -5.092385|   -6.469490|    3.706270|
|         204|  3.4254e+00|  4.7589e-20|  1.2412e-03|  5.0000e-04|  5.0000e-04|  5.0000e-04|   -4.883268|   -5.070512|   -5.505573|   -5.505275|   -5.092398|   -6.469603|    3.706238|
|         205|  3.4267e+00|  4.7589e-20|  1.2412e-03|  5.0000e-04|  5.0000e-04|  5.0000e-04|   -4.883281|   -5.070507|   -5.505575|   -5.505277|   -5.092411|   -6.469717|    3.706206|
|         206|  3.4279e+00|  4.7589e-20|  1.2412e-03|  5.0000e-04|  5.0000e-04|  5.0000e-04|   -4.883294|   -5.070502|   -5.505578|   -5.505279|   -5.092424|   -6.469830|    3.706175|
|         207|  3.4279e+00|  4.7589e-20|  1.2412e-03|  5.0000e-04|  5.0000e-04|  5.0000e-04|   -4.883307|   -5.070498|   -5.505580|   -5.505282|   -5.092437|   -6.469942|    3.706143|
|         208|  3.4289e+00|  4.7589e-20|  1.2412e-03|  5.0000e-04|  5.0000e-04|  5.0000e-04|   -4.883320|   -5.070493|   -5.505582|   -5.505284|   -5.092450|   -6.470058|    3.706111|
|         209|  3.4277e+00|  4.7589e-20|  1.2412e-03|  5.0000e-04|  5.0000e-04|  5.0000e-04|   -4.883332|   -5.070489|   -5.505584|   -5.505286|   -5.092463|   -6.470169|    3.706079|
|         210|  3.4282e+00|  4.7589e-20|  1.2412e-03|  5.0000e-04|  5.0000e-04|  5.0000e-04|   -4.883345|   -5.070484|   -5.505587|   -5.505289|   -5.092477|   -6.470282|    3.706048|
|         211|  3.4279e+00|  4.7589e-20|  1.2412e-03|  5.0000e-04|  5.0000e-04|  5.0000e-04|   -4.883358|   -5.070479|   -5.505589|   -5.505291|   -5.092490|   -6.470395|    3.706016|
|         212|  3.4277e+00|  4.7589e-20|  1.2412e-03|  5.0000e-04|  5.0000e-04|  5.0000e-04|   -4.883371|   -5.070475|   -5.505591|   -5.505293|   -5.092503|   -6.470507|    3.705984|
|         213|  3.4278e+00|  4.7589e-20|  1.2412e-03|  5.0000e-04|  5.0000e-04|  5.0000e-04|   -4.883384|   -5.070470|   -5.505593|   -5.505295|   -5.092516|   -6.470619|    3.705952|
|         214|  3.4286e+00|  4.7589e-20|  1.2412e-03|  5.0000e-04|  5.0000e-04|  5.0000e-04|   -4.883396|   -5.070465|   -5.505596|   -5.505298|   -5.092529|   -6.472711|    3.705921|
|         215|  3.4275e+00|  4.7589e-20|  1.2412e-03|  5.0000e-04|  5.0000e-04|  5.0000e-04|   -4.883409|   -5.070461|   -5.505598|   -5.505300|   -5.092542|   -6.470889|    3.705889|
|         216|  3.4282e+00|  4.7589e-20|  1.2412e-03|  5.0000e-04|  5.0000e-04|  5.0000e-04|   -4.883422|   -5.070456|   -5.505600|   -5.505302|   -5.092555|   -6.471702|    3.705857|
|         217|  3.4290e+00|  4.7589e-20|  1.2412e-03|  5.0000e-04|  5.0000e-04|  5.0000e-04|   -4.883435|   -5.070452|   -5.505602|   -5.505304|   -5.092568|   -6.472539|    3.705825|
|         218|  3.4297e+00|  4.7589e-20|  1.2412e-03|  5.0000e-04|  5.0000e-04|  5.0000e-04|   -4.883448|   -5.070447|   -5.505605|   -5.505307|   -5.092581|   -6.472901|    3.705794|
|         219|  3.4294e+00|  4.7589e-20|  1.2412e-03|  5.0000e-04|  5.0000e-04|  5.0000e-04|   -4.883460|   -5.070442|   -5.505607|   -5.505309|   -5.092594|   -6.472679|    3.705762|
|         220|  3.4290e+00|  4.7589e-20|  1.2412e-03|  5.0000e-04|  5.0000e-04|  5.0000e-04|   -4.883473|   -5.070438|   -5.505609|   -5.505311|   -5.092607|   -6.473080|    3.705730|
|         221|  3.4289e+00|  4.7589e-20|  1.2412e-03|  5.0000e-04|  5.0000e-04|  5.0000e-04|   -4.883486|   -5.070433|   -5.505612|   -5.505313|   -5.092620|   -6.472833|    3.705698|
|         222|  3.4291e+00|  4.7589e-20|  1.2412e-03|  5.0000e-04|  5.0000e-04|  5.0000e-04|   -4.883499|   -5.070429|   -5.505614|   -5.505316|   -5.092633|   -6.473266|    3.705666|
|         223|  3.4298e+00|  4.7589e-20|  1.2412e-03|  5.0000e-04|  5.0000e-04|  5.0000e-04|   -4.883512|   -5.070424|   -5.505616|   -5.505318|   -5.092646|   -6.472985|    3.705635|
|         224|  3.4310e+00|  4.7589e-20|  1.2412e-03|  5.0000e-04|  5.0000e-04|  5.0000e-04|   -4.883524|   -5.070420|   -5.505618|   -5.505320|   -5.092660|   -6.473453|    3.705603|
|         225|  3.4329e+00|  4.7589e-20|  1.2412e-03|  5.0000e-04|  5.0000e-04|  5.0000e-04|   -4.883537|   -5.070415|   -5.505621|   -5.505322|   -5.092673|   -6.473132|    3.705571|
|         226|  3.4353e+00|  4.7589e-20|  1.2412e-03|  5.0000e-04|  5.0000e-04|  5.0000e-04|   -4.883550|   -5.070410|   -5.505623|   -5.505325|   -5.092686|   -6.473638|    3.705539|
|         227|  3.4395e+00|  4.7589e-20|  1.2412e-03|  5.0000e-04|  5.0000e-04|  5.0000e-04|   -4.883563|   -5.070406|   -5.505625|   -5.505327|   -5.092699|   -6.473270|    3.705507|
|         228|  3.4418e+00|  4.7589e-20|  1.2412e-03|  5.0000e-04|  5.0000e-04|  5.0000e-04|   -4.883575|   -5.070401|   -5.505627|   -5.505329|   -5.092712|   -6.473817|    3.705476|
|         229|  3.4462e+00|  4.7589e-20|  1.2412e-03|  5.0000e-04|  5.0000e-04|  5.0000e-04|   -4.883588|   -5.070397|   -5.505630|   -5.505331|   -5.092725|   -6.473396|    3.705444|
|         230|  3.4491e+00|  4.7589e-20|  1.2412e-03|  5.0000e-04|  5.0000e-04|  5.0000e-04|   -4.883601|   -5.070392|   -5.505632|   -5.505334|   -5.092738|   -6.473988|    3.705412|
|         231|  3.4539e+00|  4.7589e-20|  1.2412e-03|  5.0000e-04|  5.0000e-04|  5.0000e-04|   -4.883614|   -5.070387|   -5.505634|   -5.505336|   -5.092751|   -6.473507|    3.705380|
|         232|  3.4574e+00|  4.7589e-20|  1.2412e-03|  5.0000e-04|  5.0000e-04|  5.0000e-04|   -4.883626|   -5.070383|   -5.505636|   -5.505338|   -5.092764|   -6.474151|    3.705348|
|         233|  3.4609e+00|  4.7589e-20|  1.2412e-03|  5.0000e-04|  5.0000e-04|  5.0000e-04|   -4.883639|   -5.070378|   -5.505639|   -5.505340|   -5.092777|   -6.473601|    3.705317|
|         234|  3.4639e+00|  4.7589e-20|  1.2412e-03|  5.0000e-04|  5.0000e-04|  5.0000e-04|   -4.883652|   -5.070374|   -5.505641|   -5.505343|   -5.092790|   -6.474310|    3.705285|
|         235|  3.4673e+00|  4.7589e-20|  1.2412e-03|  5.0000e-04|  5.0000e-04|  5.0000e-04|   -4.883665|   -5.070369|   -5.505643|   -5.505345|   -5.092803|   -6.473682|    3.705253|
|         236|  3.4702e+00|  4.7589e-20|  1.2412e-03|  5.0000e-04|  5.0000e-04|  5.0000e-04|   -4.883677|   -5.070365|   -5.505645|   -5.505347|   -5.092816|   -6.474472|    3.705221|
|         237|  3.4730e+00|  4.7589e-20|  1.2412e-03|  5.0000e-04|  5.0000e-04|  5.0000e-04|   -4.883690|   -5.070360|   -5.505648|   -5.505349|   -5.092829|   -6.473741|    3.705189|
|         238|  3.4735e+00|  4.7589e-20|  1.2412e-03|  5.0000e-04|  5.0000e-04|  5.0000e-04|   -4.883703|   -5.070355|   -5.505650|   -5.505352|   -5.092842|   -6.474639|    3.705158|
|         239|  3.4740e+00|  4.7589e-20|  1.2412e-03|  5.0000e-04|  5.0000e-04|  5.0000e-04|   -4.883716|   -5.070351|   -5.505652|   -5.505354|   -5.092855|   -6.473757|    3.705126|
|         240|  3.4748e+00|  4.7589e-20|  1.2412e-03|  5.0000e-04|  5.0000e-04|  5.0000e-04|   -4.883728|   -5.070346|   -5.505655|   -5.505356|   -5.092868|   -6.474807|    3.705094|
|         241|  3.4760e+00|  4.7589e-20|  1.2412e-03|  5.0000e-04|  5.0000e-04|  5.0000e-04|   -4.883741|   -5.070342|   -5.505657|   -5.505359|   -5.092881|   -6.473653|    3.705062|
|         242|  3.4772e+00|  4.7589e-20|  1.2412e-03|  5.0000e-04|  5.0000e-04|  5.0000e-04|   -4.883754|   -5.070337|   -5.505659|   -5.505361|   -5.092894|   -6.474955|    3.705030|
|         243|  3.4787e+00|  4.7589e-20|  1.2412e-03|  5.0000e-04|  5.0000e-04|  5.0000e-04|   -4.883767|   -5.070333|   -5.505661|   -5.505363|   -5.092907|   -6.473168|    3.704998|
|         244|  3.4802e+00|  4.7589e-20|  1.2412e-03|  5.0000e-04|  5.0000e-04|  5.0000e-04|   -4.883779|   -5.070328|   -5.505664|   -5.505365|   -5.092920|   -6.475028|    3.704967|
|         245|  3.4816e+00|  4.7589e-20|  1.2412e-03|  5.0000e-04|  5.0000e-04|  5.0000e-04|   -4.883792|   -5.070323|   -5.505666|   -5.505368|   -5.092933|   -6.469797|    3.704935|
|         246|  3.4830e+00|  4.7589e-20|  1.2412e-03|  5.0000e-04|  5.0000e-04|  5.0000e-04|   -4.883805|   -5.070319|   -5.505668|   -5.505370|   -5.092946|   -6.465691|    3.704903|
|         247|  3.4846e+00|  4.7589e-20|  1.2412e-03|  5.0000e-04|  5.0000e-04|  5.0000e-04|   -4.883817|   -5.070314|   -5.505670|   -5.505372|   -5.092959|   -6.465872|    3.704871|
|         248|  3.4856e+00|  4.7589e-20|  1.2412e-03|  5.0000e-04|  5.0000e-04|  5.0000e-04|   -4.883830|   -5.070310|   -5.505673|   -5.505374|   -5.092972|   -6.465969|    3.704839|
|         249|  3.4862e+00|  4.7589e-20|  1.2412e-03|  5.0000e-04|  5.0000e-04|  5.0000e-04|   -4.883843|   -5.070305|   -5.505675|   -5.505377|   -5.092985|   -6.466107|    3.704807|
|         250|  3.4859e+00|  4.7589e-20|  1.2412e-03|  5.0000e-04|  5.0000e-04|  5.0000e-04|   -4.883856|   -5.070301|   -5.505677|   -5.505379|   -5.092998|   -6.466190|    3.704775|
|         251|  3.4857e+00|  4.7589e-20|  1.2412e-03|  5.0000e-04|  5.0000e-04|  5.0000e-04|   -4.883868|   -5.070296|   -5.505679|   -5.505381|   -5.093011|   -6.466299|    3.704744|
|         252|  3.4847e+00|  4.7589e-20|  1.2412e-03|  5.0000e-04|  5.0000e-04|  5.0000e-04|   -4.883881|   -5.070291|   -5.505682|   -5.505383|   -5.093024|   -6.466408|    3.704712|
|         253|  3.4870e+00|  4.7589e-20|  1.2412e-03|  5.0000e-04|  5.0000e-04|  5.0000e-04|   -4.883894|   -5.070287|   -5.505684|   -5.505386|   -5.093037|   -6.466516|    3.704680|
|         254|  3.4875e+00|  4.7589e-20|  1.2412e-03|  5.0000e-04|  5.0000e-04|  5.0000e-04|   -4.883906|   -5.070282|   -5.505686|   -5.505388|   -5.093050|   -6.466625|    3.704648|
|         255|  3.4891e+00|  4.7589e-20|  1.2412e-03|  5.0000e-04|  5.0000e-04|  5.0000e-04|   -4.883919|   -5.070278|   -5.505688|   -5.505390|   -5.093063|   -6.466734|    3.704616|
|         256|  3.4907e+00|  4.7589e-20|  1.2412e-03|  5.0000e-04|  5.0000e-04|  5.0000e-04|   -4.883932|   -5.070273|   -5.505691|   -5.505392|   -5.093076|   -6.466842|    3.704584|
|         257|  3.4942e+00|  4.7589e-20|  1.2412e-03|  5.0000e-04|  5.0000e-04|  5.0000e-04|   -4.883944|   -5.070269|   -5.505693|   -5.505395|   -5.093089|   -6.466951|    3.704552|
|         258|  3.4983e+00|  4.7589e-20|  1.2412e-03|  5.0000e-04|  5.0000e-04|  5.0000e-04|   -4.883957|   -5.070264|   -5.505695|   -5.505397|   -5.093102|   -6.467060|    3.704521|
|         259|  3.5037e+00|  4.7589e-20|  1.2412e-03|  5.0000e-04|  5.0000e-04|  5.0000e-04|   -4.883970|   -5.070260|   -5.505697|   -5.505399|   -5.093115|   -6.467169|    3.704489|
|         260|  3.5114e+00|  4.7589e-20|  1.2412e-03|  5.0000e-04|  5.0000e-04|  5.0000e-04|   -4.883982|   -5.070255|   -5.505700|   -5.505401|   -5.093128|   -6.467277|    3.704457|
|         261|  3.5198e+00|  4.7589e-20|  1.2412e-03|  5.0000e-04|  5.0000e-04|  5.0000e-04|   -4.883995|   -5.070251|   -5.505702|   -5.505404|   -5.093141|   -6.467386|    3.704425|
|         262|  3.5279e+00|  4.7589e-20|  1.2412e-03|  5.0000e-04|  5.0000e-04|  5.0000e-04|   -4.884008|   -5.070246|   -5.505704|   -5.505406|   -5.093154|   -6.467495|    3.704393|
|         263|  3.5335e+00|  4.7589e-20|  1.2412e-03|  5.0000e-04|  5.0000e-04|  5.0000e-04|   -4.884020|   -5.070241|   -5.505706|   -5.505408|   -5.093167|   -6.467604|    3.704361|
|         264|  3.5362e+00|  4.7589e-20|  1.2412e-03|  5.0000e-04|  5.0000e-04|  5.0000e-04|   -4.884033|   -5.070237|   -5.505709|   -5.505410|   -5.093180|   -6.467712|    3.704329|
|         265|  3.5372e+00|  4.7589e-20|  1.2412e-03|  5.0000e-04|  5.0000e-04|  5.0000e-04|   -4.884046|   -5.070232|   -5.505711|   -5.505413|   -5.093193|   -6.467821|    3.704297|
|         266|  3.5372e+00|  4.7589e-20|  1.2412e-03|  5.0000e-04|  5.0000e-04|  5.0000e-04|   -4.884058|   -5.070228|   -5.505713|   -5.505415|   -5.093206|   -6.467930|    3.704265|
|         267|  3.5366e+00|  4.7589e-20|  1.2412e-03|  5.0000e-04|  5.0000e-04|  5.0000e-04|   -4.884071|   -5.070223|   -5.505716|   -5.505417|   -5.093219|   -6.468039|    3.704234|
|         268|  3.5358e+00|  4.7589e-20|  1.2412e-03|  5.0000e-04|  5.0000e-04|  5.0000e-04|   -4.884084|   -5.070219|   -5.505718|   -5.505419|   -5.093232|   -6.468147|    3.704202|
|         269|  3.5349e+00|  4.7589e-20|  1.2412e-03|  5.0000e-04|  5.0000e-04|  5.0000e-04|   -4.884096|   -5.070214|   -5.505720|   -5.505421|   -5.093245|   -6.468256|    3.704170|
|         270|  3.5335e+00|  4.7589e-20|  1.2412e-03|  5.0000e-04|  5.0000e-04|  5.0000e-04|   -4.884109|   -5.070210|   -5.505722|   -5.505424|   -5.093258|   -6.468365|    3.704138|
|         271|  3.5325e+00|  4.7589e-20|  1.2412e-03|  5.0000e-04|  5.0000e-04|  5.0000e-04|   -4.884122|   -5.070205|   -5.505725|   -5.505426|   -5.093271|   -6.468473|    3.704106|
|         272|  3.5316e+00|  4.7589e-20|  1.2412e-03|  5.0000e-04|  5.0000e-04|  5.0000e-04|   -4.884134|   -5.070201|   -5.505727|   -5.505428|   -5.093284|   -6.468582|    3.704074|
|         273|  3.5303e+00|  4.7589e-20|  1.2412e-03|  5.0000e-04|  5.0000e-04|  5.0000e-04|   -4.884147|   -5.070196|   -5.505729|   -5.505430|   -5.093297|   -6.468692|    3.704042|
|         274|  3.5296e+00|  4.7589e-20|  1.2412e-03|  5.0000e-04|  5.0000e-04|  5.0000e-04|   -4.884160|   -5.070192|   -5.505731|   -5.505433|   -5.093310|   -6.468800|    3.704010|
|         275|  3.5275e+00|  4.7589e-20|  1.2412e-03|  5.0000e-04|  5.0000e-04|  5.0000e-04|   -4.884172|   -5.070187|   -5.505734|   -5.505435|   -5.093322|   -6.468910|    3.703978|
|         276|  3.5268e+00|  4.7589e-20|  1.2412e-03|  5.0000e-04|  5.0000e-04|  5.0000e-04|   -4.884185|   -5.070182|   -5.505736|   -5.505437|   -5.093335|   -6.469019|    3.703946|
|         277|  3.5258e+00|  4.7589e-20|  1.2412e-03|  5.0000e-04|  5.0000e-04|  5.0000e-04|   -4.884197|   -5.070178|   -5.505738|   -5.505439|   -5.093348|   -6.469127|    3.703915|
|         278|  3.5240e+00|  4.7589e-20|  1.2412e-03|  5.0000e-04|  5.0000e-04|  5.0000e-04|   -4.884210|   -5.070173|   -5.505740|   -5.505442|   -5.093361|   -6.469236|    3.703883|
|         279|  3.5235e+00|  4.7589e-20|  1.2412e-03|  5.0000e-04|  5.0000e-04|  5.0000e-04|   -4.884223|   -5.070169|   -5.505743|   -5.505444|   -5.093374|   -6.477153|    3.703851|
|         280|  3.5212e+00|  4.7589e-20|  1.2412e-03|  5.0000e-04|  5.0000e-04|  5.0000e-04|   -4.884235|   -5.070164|   -5.505745|   -5.505446|   -5.093387|   -6.467747|    3.703819|
|         281|  3.5203e+00|  4.7589e-20|  1.2412e-03|  5.0000e-04|  5.0000e-04|  5.0000e-04|   -4.884248|   -5.070160|   -5.505747|   -5.505448|   -5.093400|   -6.461543|    3.703787|
|         282|  3.5199e+00|  4.7589e-20|  1.2412e-03|  5.0000e-04|  5.0000e-04|  5.0000e-04|   -4.884261|   -5.070155|   -5.505749|   -5.505451|   -5.093413|   -6.461476|    3.703755|
|         283|  3.5188e+00|  4.7589e-20|  1.2412e-03|  5.0000e-04|  5.0000e-04|  5.0000e-04|   -4.884273|   -5.070151|   -5.505752|   -5.505453|   -5.093426|   -6.461753|    3.703723|
|         284|  3.5185e+00|  4.7589e-20|  1.2412e-03|  5.0000e-04|  5.0000e-04|  5.0000e-04|   -4.884286|   -5.070146|   -5.505754|   -5.505455|   -5.093439|   -6.461464|    3.703691|
|         285|  3.5182e+00|  4.7589e-20|  1.2412e-03|  5.0000e-04|  5.0000e-04|  5.0000e-04|   -4.884298|   -5.070142|   -5.505756|   -5.505457|   -5.093452|   -6.461483|    3.703659|
|         286|  3.5187e+00|  4.7589e-20|  1.2412e-03|  5.0000e-04|  5.0000e-04|  5.0000e-04|   -4.884311|   -5.070137|   -5.505758|   -5.505460|   -5.093465|   -6.461508|    3.703627|
|         287|  3.5185e+00|  4.7589e-20|  1.2412e-03|  5.0000e-04|  5.0000e-04|  5.0000e-04|   -4.884324|   -5.070133|   -5.505761|   -5.505462|   -5.093478|   -6.461568|    3.703595|
|         288|  3.5189e+00|  4.7589e-20|  1.2412e-03|  5.0000e-04|  5.0000e-04|  5.0000e-04|   -4.884336|   -5.070128|   -5.505763|   -5.505464|   -5.093491|   -6.461644|    3.703563|
|         289|  3.5189e+00|  4.7589e-20|  1.2412e-03|  5.0000e-04|  5.0000e-04|  5.0000e-04|   -4.884349|   -5.070124|   -5.505765|   -5.505466|   -5.093503|   -6.461728|    3.703531|
|         290|  3.5199e+00|  4.7589e-20|  1.2412e-03|  5.0000e-04|  5.0000e-04|  5.0000e-04|   -4.884361|   -5.070119|   -5.505767|   -5.505469|   -5.093516|   -6.461819|    3.703499|
|         291|  3.5213e+00|  4.7589e-20|  1.2412e-03|  5.0000e-04|  5.0000e-04|  5.0000e-04|   -4.884374|   -5.070115|   -5.505770|   -5.505471|   -5.093529|   -6.461913|    3.703467|
|         292|  3.5228e+00|  4.7589e-20|  1.2412e-03|  5.0000e-04|  5.0000e-04|  5.0000e-04|   -4.884386|   -5.070110|   -5.505772|   -5.505473|   -5.093542|   -6.462010|    3.703435|
|         293|  3.5244e+00|  4.7589e-20|  1.2412e-03|  5.0000e-04|  5.0000e-04|  5.0000e-04|   -4.884399|   -5.070106|   -5.505774|   -5.505475|   -5.093555|   -6.462105|    3.703403|
|         294|  3.5247e+00|  4.7589e-20|  1.2412e-03|  5.0000e-04|  5.0000e-04|  5.0000e-04|   -4.884412|   -5.070101|   -5.505776|   -5.505478|   -5.093568|   -6.462200|    3.703372|
|         295|  3.5251e+00|  4.7589e-20|  1.2412e-03|  5.0000e-04|  5.0000e-04|  5.0000e-04|   -4.884424|   -5.070097|   -5.505779|   -5.505480|   -5.093581|   -6.462294|    3.703340|
|         296|  3.5265e+00|  4.7589e-20|  1.2412e-03|  5.0000e-04|  5.0000e-04|  5.0000e-04|   -4.884437|   -5.070092|   -5.505781|   -5.505482|   -5.093594|   -6.462385|    3.703308|
|         297|  3.5274e+00|  4.7589e-20|  1.2412e-03|  5.0000e-04|  5.0000e-04|  5.0000e-04|   -4.884449|   -5.070088|   -5.505783|   -5.505484|   -5.093607|   -6.462473|    3.703276|
|         298|  3.5280e+00|  4.7589e-20|  1.2412e-03|  5.0000e-04|  5.0000e-04|  5.0000e-04|   -4.884462|   -5.070083|   -5.505785|   -5.505486|   -5.093620|   -6.462555|    3.703244|
|         299|  3.5276e+00|  4.7589e-20|  1.2412e-03|  5.0000e-04|  5.0000e-04|  5.0000e-04|   -4.884474|   -5.070079|   -5.505787|   -5.505489|   -5.093632|   -6.462632|    3.703212|
|         300|  3.5276e+00|  4.7589e-20|  1.2412e-03|  5.0000e-04|  5.0000e-04|  5.0000e-04|   -4.884487|   -5.070074|   -5.505790|   -5.505491|   -5.093645|   -6.462700|    3.703180|
+-----------------------------------------------------------------------+
|        File Writing Summary       |              Filename             |
+-----------------------------------------------------------------------+
|SU2 binary restart                 |restart_flow.dat                   |
|Paraview                           |flow.vtu                           |
|Paraview surface                   |surface_flow.vtu                   |
+-----------------------------------------------------------------------+
+-------------------------------------------------------------------------------------------------------------------------------------------------------------------------------------+
|  Inner_Iter|   Time(sec)|      Min DT|      Max DT|     Min CFL|     Max CFL|     Avg CFL|    rms[Rho]|   rms[RhoU]|   rms[RhoV]|   rms[RhoW]|   rms[RhoE]|     rms[nu]|          CD|
+-------------------------------------------------------------------------------------------------------------------------------------------------------------------------------------+
|         301|  3.5811e+00|  4.7589e-20|  1.2412e-03|  5.0000e-04|  5.0000e-04|  5.0000e-04|   -4.884500|   -5.070070|   -5.505792|   -5.505493|   -5.093658|   -6.462763|    3.703148|
|         302|  3.5809e+00|  4.7589e-20|  1.2412e-03|  5.0000e-04|  5.0000e-04|  5.0000e-04|   -4.884512|   -5.070065|   -5.505794|   -5.505495|   -5.093671|   -6.462808|    3.703116|
|         303|  3.5797e+00|  4.7589e-20|  1.2412e-03|  5.0000e-04|  5.0000e-04|  5.0000e-04|   -4.884525|   -5.070061|   -5.505796|   -5.505498|   -5.093684|   -6.462846|    3.703084|
|         304|  3.5783e+00|  4.7589e-20|  1.2412e-03|  5.0000e-04|  5.0000e-04|  5.0000e-04|   -4.884537|   -5.070056|   -5.505799|   -5.505500|   -5.093697|   -6.462927|    3.703052|
|         305|  3.5768e+00|  4.7589e-20|  1.2412e-03|  5.0000e-04|  5.0000e-04|  5.0000e-04|   -4.884550|   -5.070052|   -5.505801|   -5.505502|   -5.093710|   -6.462935|    3.703020|
|         306|  3.5751e+00|  4.7589e-20|  1.2412e-03|  5.0000e-04|  5.0000e-04|  5.0000e-04|   -4.884562|   -5.070047|   -5.505803|   -5.505504|   -5.093723|   -6.462903|    3.702988|
|         307|  3.5735e+00|  4.7589e-20|  1.2412e-03|  5.0000e-04|  5.0000e-04|  5.0000e-04|   -4.884575|   -5.070043|   -5.505805|   -5.505507|   -5.093736|   -6.462858|    3.702956|
|         308|  3.5722e+00|  4.7589e-20|  1.2412e-03|  5.0000e-04|  5.0000e-04|  5.0000e-04|   -4.884587|   -5.070038|   -5.505808|   -5.505509|   -5.093748|   -6.462784|    3.702924|
|         309|  3.5705e+00|  4.7589e-20|  1.2412e-03|  5.0000e-04|  5.0000e-04|  5.0000e-04|   -4.884600|   -5.070034|   -5.505810|   -5.505511|   -5.093761|   -6.462678|    3.702892|
|         310|  3.5691e+00|  4.7589e-20|  1.2412e-03|  5.0000e-04|  5.0000e-04|  5.0000e-04|   -4.884612|   -5.070029|   -5.505812|   -5.505513|   -5.093774|   -6.462535|    3.702860|
|         311|  3.5678e+00|  4.7589e-20|  1.2412e-03|  5.0000e-04|  5.0000e-04|  5.0000e-04|   -4.884625|   -5.070025|   -5.505814|   -5.505516|   -5.093787|   -6.462369|    3.702828|
|         312|  3.5666e+00|  4.7589e-20|  1.2412e-03|  5.0000e-04|  5.0000e-04|  5.0000e-04|   -4.884637|   -5.070020|   -5.505817|   -5.505518|   -5.093800|   -6.462145|    3.702796|
|         313|  3.5648e+00|  4.7589e-20|  1.2412e-03|  5.0000e-04|  5.0000e-04|  5.0000e-04|   -4.884650|   -5.070016|   -5.505819|   -5.505520|   -5.093813|   -6.461880|    3.702764|
|         314|  3.5636e+00|  4.7589e-20|  1.2412e-03|  5.0000e-04|  5.0000e-04|  5.0000e-04|   -4.884662|   -5.070011|   -5.505821|   -5.505522|   -5.093826|   -6.461575|    3.702732|
|         315|  3.5624e+00|  4.7589e-20|  1.2412e-03|  5.0000e-04|  5.0000e-04|  5.0000e-04|   -4.884675|   -5.070007|   -5.505823|   -5.505524|   -5.093838|   -6.461237|    3.702700|
|         316|  3.5608e+00|  4.7589e-20|  1.2412e-03|  5.0000e-04|  5.0000e-04|  5.0000e-04|   -4.884687|   -5.070002|   -5.505826|   -5.505527|   -5.093851|   -6.460876|    3.702668|
|         317|  3.5597e+00|  4.7589e-20|  1.2412e-03|  5.0000e-04|  5.0000e-04|  5.0000e-04|   -4.884700|   -5.069998|   -5.505828|   -5.505529|   -5.093864|   -6.460507|    3.702636|
|         318|  3.5584e+00|  4.7589e-20|  1.2412e-03|  5.0000e-04|  5.0000e-04|  5.0000e-04|   -4.884712|   -5.069993|   -5.505830|   -5.505531|   -5.093877|   -6.460146|    3.702604|
|         319|  3.5572e+00|  4.7589e-20|  1.2412e-03|  5.0000e-04|  5.0000e-04|  5.0000e-04|   -4.884725|   -5.069989|   -5.505832|   -5.505533|   -5.093890|   -6.459813|    3.702572|
|         320|  3.5561e+00|  4.7589e-20|  1.2412e-03|  5.0000e-04|  5.0000e-04|  5.0000e-04|   -4.884737|   -5.069984|   -5.505835|   -5.505536|   -5.093903|   -6.459528|    3.702540|
|         321|  3.5550e+00|  4.7589e-20|  1.2412e-03|  5.0000e-04|  5.0000e-04|  5.0000e-04|   -4.884750|   -5.069980|   -5.505837|   -5.505538|   -5.093915|   -6.459306|    3.702508|
|         322|  3.5538e+00|  4.7589e-20|  1.2412e-03|  5.0000e-04|  5.0000e-04|  5.0000e-04|   -4.884762|   -5.069976|   -5.505839|   -5.505540|   -5.093928|   -6.459153|    3.702476|
|         323|  3.5520e+00|  4.7589e-20|  1.2412e-03|  5.0000e-04|  5.0000e-04|  5.0000e-04|   -4.884775|   -5.069971|   -5.505841|   -5.505542|   -5.093941|   -6.459069|    3.702444|
|         324|  3.5512e+00|  4.7589e-20|  1.2412e-03|  5.0000e-04|  5.0000e-04|  5.0000e-04|   -4.884787|   -5.069967|   -5.505844|   -5.505545|   -5.093954|   -6.459047|    3.702412|
|         325|  3.5499e+00|  4.7589e-20|  1.2412e-03|  5.0000e-04|  5.0000e-04|  5.0000e-04|   -4.884800|   -5.069962|   -5.505846|   -5.505547|   -5.093967|   -6.459075|    3.702380|
|         326|  3.5487e+00|  4.7589e-20|  1.2412e-03|  5.0000e-04|  5.0000e-04|  5.0000e-04|   -4.884812|   -5.069958|   -5.505848|   -5.505549|   -5.093980|   -6.459137|    3.702348|
|         327|  3.5473e+00|  4.7589e-20|  1.2412e-03|  5.0000e-04|  5.0000e-04|  5.0000e-04|   -4.884825|   -5.069953|   -5.505850|   -5.505551|   -5.093992|   -6.459222|    3.702316|
|         328|  3.5460e+00|  4.7589e-20|  1.2412e-03|  5.0000e-04|  5.0000e-04|  5.0000e-04|   -4.884837|   -5.069949|   -5.505852|   -5.505553|   -5.094005|   -6.459319|    3.702284|
|         329|  3.5447e+00|  4.7589e-20|  1.2412e-03|  5.0000e-04|  5.0000e-04|  5.0000e-04|   -4.884850|   -5.069944|   -5.505855|   -5.505556|   -5.094018|   -6.459422|    3.702251|
|         330|  3.5432e+00|  4.7589e-20|  1.2412e-03|  5.0000e-04|  5.0000e-04|  5.0000e-04|   -4.884862|   -5.069940|   -5.505857|   -5.505558|   -5.094031|   -6.459529|    3.702219|
|         331|  3.5422e+00|  4.7589e-20|  1.2412e-03|  5.0000e-04|  5.0000e-04|  5.0000e-04|   -4.884875|   -5.069935|   -5.505859|   -5.505560|   -5.094044|   -6.459630|    3.702187|
|         332|  3.5410e+00|  4.7589e-20|  1.2412e-03|  5.0000e-04|  5.0000e-04|  5.0000e-04|   -4.884887|   -5.069931|   -5.505861|   -5.505562|   -5.094057|   -6.459742|    3.702155|
|         333|  3.5412e+00|  4.7589e-20|  1.2412e-03|  5.0000e-04|  5.0000e-04|  5.0000e-04|   -4.884900|   -5.069926|   -5.505864|   -5.505565|   -5.094069|   -6.459851|    3.702123|
|         334|  3.5421e+00|  4.7589e-20|  1.2412e-03|  5.0000e-04|  5.0000e-04|  5.0000e-04|   -4.884912|   -5.069922|   -5.505866|   -5.505567|   -5.094082|   -6.459959|    3.702091|
|         335|  3.5381e+00|  4.7589e-20|  1.2412e-03|  5.0000e-04|  5.0000e-04|  5.0000e-04|   -4.884924|   -5.069918|   -5.505868|   -5.505569|   -5.094095|   -6.460067|    3.702059|
|         336|  3.5343e+00|  4.7589e-20|  1.2412e-03|  5.0000e-04|  5.0000e-04|  5.0000e-04|   -4.884937|   -5.069913|   -5.505870|   -5.505571|   -5.094108|   -6.460175|    3.702027|
|         337|  3.5308e+00|  4.7589e-20|  1.2412e-03|  5.0000e-04|  5.0000e-04|  5.0000e-04|   -4.884949|   -5.069909|   -5.505873|   -5.505574|   -5.094121|   -6.460284|    3.701995|
|         338|  3.5279e+00|  4.7589e-20|  1.2412e-03|  5.0000e-04|  5.0000e-04|  5.0000e-04|   -4.884962|   -5.069904|   -5.505875|   -5.505576|   -5.094133|   -6.460392|    3.701963|
|         339|  3.5252e+00|  4.7589e-20|  1.2412e-03|  5.0000e-04|  5.0000e-04|  5.0000e-04|   -4.884974|   -5.069900|   -5.505877|   -5.505578|   -5.094146|   -6.460500|    3.701931|
|         340|  3.5225e+00|  4.7589e-20|  1.2412e-03|  5.0000e-04|  5.0000e-04|  5.0000e-04|   -4.884987|   -5.069895|   -5.505879|   -5.505580|   -5.094159|   -6.460608|    3.701899|
|         341|  3.5198e+00|  4.7589e-20|  1.2412e-03|  5.0000e-04|  5.0000e-04|  5.0000e-04|   -4.884999|   -5.069891|   -5.505881|   -5.505582|   -5.094172|   -6.460717|    3.701867|
|         342|  3.5191e+00|  4.7589e-20|  1.2412e-03|  5.0000e-04|  5.0000e-04|  5.0000e-04|   -4.885012|   -5.069886|   -5.505884|   -5.505585|   -5.094185|   -6.460825|    3.701835|
|         343|  3.5177e+00|  4.7589e-20|  1.2412e-03|  5.0000e-04|  5.0000e-04|  5.0000e-04|   -4.885024|   -5.069882|   -5.505886|   -5.505587|   -5.094197|   -6.460933|    3.701803|
|         344|  3.5167e+00|  4.7589e-20|  1.2412e-03|  5.0000e-04|  5.0000e-04|  5.0000e-04|   -4.885036|   -5.069877|   -5.505888|   -5.505589|   -5.094210|   -6.461041|    3.701771|
|         345|  3.5153e+00|  4.7589e-20|  1.2412e-03|  5.0000e-04|  5.0000e-04|  5.0000e-04|   -4.885049|   -5.069873|   -5.505890|   -5.505591|   -5.094223|   -6.461148|    3.701738|
|         346|  3.5145e+00|  4.7589e-20|  1.2412e-03|  5.0000e-04|  5.0000e-04|  5.0000e-04|   -4.885061|   -5.069869|   -5.505893|   -5.505594|   -5.094236|   -6.461261|    3.701706|
|         347|  3.5128e+00|  4.7589e-20|  1.2412e-03|  5.0000e-04|  5.0000e-04|  5.0000e-04|   -4.885074|   -5.069864|   -5.505895|   -5.505596|   -5.094248|   -6.461365|    3.701674|
|         348|  3.5118e+00|  4.7589e-20|  1.2412e-03|  5.0000e-04|  5.0000e-04|  5.0000e-04|   -4.885086|   -5.069860|   -5.505897|   -5.505598|   -5.094261|   -6.461473|    3.701642|
|         349|  3.5110e+00|  4.7589e-20|  1.2412e-03|  5.0000e-04|  5.0000e-04|  5.0000e-04|   -4.885098|   -5.069855|   -5.505899|   -5.505600|   -5.094274|   -6.461580|    3.701610|
|         350|  3.5094e+00|  4.7589e-20|  1.2412e-03|  5.0000e-04|  5.0000e-04|  5.0000e-04|   -4.885111|   -5.069851|   -5.505902|   -5.505602|   -5.094287|   -6.461688|    3.701578|
[...]
|       12785|  5.0087e+00|  3.9020e-20|  1.2412e-03|  5.0000e-04|  5.0000e-04|  5.0000e-04|   -4.804077|   -5.070022|   -5.446051|   -5.445811|   -4.996733|   -4.298272|    3.351600|
|       12786|  5.0087e+00|  4.1454e-20|  1.2412e-03|  5.0000e-04|  5.0000e-04|  5.0000e-04|   -4.804090|   -5.070013|   -5.446057|   -5.445817|   -4.996749|   -4.314022|    3.351594|
|       12787|  5.0087e+00|  4.4066e-20|  1.2412e-03|  5.0000e-04|  5.0000e-04|  5.0000e-04|   -4.804104|   -5.070003|   -5.446063|   -5.445823|   -4.996765|   -4.330800|    3.351588|
|       12788|  5.0088e+00|  4.6869e-20|  1.2412e-03|  5.0000e-04|  5.0000e-04|  5.0000e-04|   -4.804117|   -5.069994|   -5.446069|   -5.445829|   -4.996781|   -4.348668|    3.351583|
|       12789|  5.0088e+00|  4.7809e-20|  1.2412e-03|  5.0000e-04|  5.0000e-04|  5.0000e-04|   -4.804130|   -5.069984|   -5.446075|   -5.445835|   -4.996797|   -4.367725|    3.351577|
|       12790|  5.0088e+00|  4.7809e-20|  1.2412e-03|  5.0000e-04|  5.0000e-04|  5.0000e-04|   -4.804144|   -5.069975|   -5.446081|   -5.445840|   -4.996812|   -4.388057|    3.351571|
|       12791|  5.0088e+00|  4.7809e-20|  1.2412e-03|  5.0000e-04|  5.0000e-04|  5.0000e-04|   -4.804157|   -5.069966|   -5.446087|   -5.445846|   -4.996828|   -4.409728|    3.351565|
|       12792|  5.0088e+00|  4.7809e-20|  1.2412e-03|  5.0000e-04|  5.0000e-04|  5.0000e-04|   -4.804171|   -5.069956|   -5.446093|   -5.445852|   -4.996844|   -4.432840|    3.351560|
|       12793|  5.0088e+00|  4.7809e-20|  1.2412e-03|  5.0000e-04|  5.0000e-04|  5.0000e-04|   -4.804184|   -5.069947|   -5.446099|   -5.445858|   -4.996860|   -4.457489|    3.351554|
|       12794|  5.0088e+00|  4.7809e-20|  1.2412e-03|  5.0000e-04|  5.0000e-04|  5.0000e-04|   -4.804198|   -5.069938|   -5.446104|   -5.445864|   -4.996876|   -4.483775|    3.351548|
|       12795|  5.0088e+00|  4.7809e-20|  1.2412e-03|  5.0000e-04|  5.0000e-04|  5.0000e-04|   -4.804211|   -5.069928|   -5.446110|   -5.445870|   -4.996892|   -4.511799|    3.351543|
|       12796|  5.0088e+00|  4.7809e-20|  1.2412e-03|  5.0000e-04|  5.0000e-04|  5.0000e-04|   -4.804224|   -5.069919|   -5.446116|   -5.445876|   -4.996908|   -4.541662|    3.351537|
|       12797|  5.0088e+00|  4.7809e-20|  1.2412e-03|  5.0000e-04|  5.0000e-04|  5.0000e-04|   -4.804238|   -5.069909|   -5.446122|   -5.445882|   -4.996924|   -4.573466|    3.351531|
|       12798|  5.0088e+00|  4.7809e-20|  1.2412e-03|  5.0000e-04|  5.0000e-04|  5.0000e-04|   -4.804251|   -5.069900|   -5.446128|   -5.445888|   -4.996940|   -4.607308|    3.351526|
|       12799|  5.0088e+00|  4.7809e-20|  1.2412e-03|  5.0000e-04|  5.0000e-04|  5.0000e-04|   -4.804265|   -5.069891|   -5.446134|   -5.445894|   -4.996956|   -4.643275|    3.351520|
|       12800|  5.0089e+00|  4.7809e-20|  1.2412e-03|  5.0000e-04|  5.0000e-04|  5.0000e-04|   -4.804278|   -5.069881|   -5.446140|   -5.445900|   -4.996972|   -4.681435|    3.351514|
|       12801|  5.0089e+00|  4.7809e-20|  1.2412e-03|  5.0000e-04|  5.0000e-04|  5.0000e-04|   -4.804292|   -5.069872|   -5.446146|   -5.445906|   -4.996988|   -4.721879|    3.351509|
|       12802|  5.0089e+00|  4.7809e-20|  1.2412e-03|  5.0000e-04|  5.0000e-04|  5.0000e-04|   -4.804305|   -5.069863|   -5.446152|   -5.445912|   -4.997004|   -4.764551|    3.351503|
|       12803|  5.0089e+00|  4.7809e-20|  1.2412e-03|  5.0000e-04|  5.0000e-04|  5.0000e-04|   -4.804319|   -5.069853|   -5.446158|   -5.445918|   -4.997019|   -4.809552|    3.351497|
|       12804|  5.0089e+00|  4.7809e-20|  1.2412e-03|  5.0000e-04|  5.0000e-04|  5.0000e-04|   -4.804332|   -5.069844|   -5.446164|   -5.445924|   -4.997035|   -4.857005|    3.351492|
|       12805|  5.0089e+00|  4.7809e-20|  1.2412e-03|  5.0000e-04|  5.0000e-04|  5.0000e-04|   -4.804346|   -5.069835|   -5.446170|   -5.445930|   -4.997051|   -4.905962|    3.351486|
|       12806|  5.0089e+00|  4.7809e-20|  1.2412e-03|  5.0000e-04|  5.0000e-04|  5.0000e-04|   -4.804359|   -5.069825|   -5.446176|   -5.445936|   -4.997067|   -4.957128|    3.351481|
|       12807|  5.0089e+00|  4.7809e-20|  1.2412e-03|  5.0000e-04|  5.0000e-04|  5.0000e-04|   -4.804373|   -5.069816|   -5.446182|   -5.445942|   -4.997083|   -5.009953|    3.351475|
|       12808|  5.0089e+00|  4.7809e-20|  1.2412e-03|  5.0000e-04|  5.0000e-04|  5.0000e-04|   -4.804386|   -5.069807|   -5.446188|   -5.445948|   -4.997099|   -5.064114|    3.351469|
|       12809|  5.0089e+00|  4.7809e-20|  1.2412e-03|  5.0000e-04|  5.0000e-04|  5.0000e-04|   -4.804400|   -5.069797|   -5.446194|   -5.445954|   -4.997115|   -5.119182|    3.351464|
|       12810|  5.0089e+00|  4.7809e-20|  1.2412e-03|  5.0000e-04|  5.0000e-04|  5.0000e-04|   -4.804413|   -5.069788|   -5.446200|   -5.445960|   -4.997131|   -5.174966|    3.351458|
|       12811|  5.0089e+00|  4.7809e-20|  1.2412e-03|  5.0000e-04|  5.0000e-04|  5.0000e-04|   -4.804427|   -5.069778|   -5.446206|   -5.445966|   -4.997147|   -5.230990|    3.351453|
|       12812|  5.0089e+00|  4.7809e-20|  1.2412e-03|  5.0000e-04|  5.0000e-04|  5.0000e-04|   -4.804440|   -5.069769|   -5.446212|   -5.445972|   -4.997163|   -5.287126|    3.351447|
|       12813|  5.0089e+00|  4.7809e-20|  1.2412e-03|  5.0000e-04|  5.0000e-04|  5.0000e-04|   -4.804454|   -5.069760|   -5.446218|   -5.445978|   -4.997179|   -5.343386|    3.351441|
|       12814|  5.0089e+00|  4.7809e-20|  1.2412e-03|  5.0000e-04|  5.0000e-04|  5.0000e-04|   -4.804468|   -5.069750|   -5.446224|   -5.445984|   -4.997195|   -5.399987|    3.351436|
|       12815|  5.0089e+00|  4.7809e-20|  1.2412e-03|  5.0000e-04|  5.0000e-04|  5.0000e-04|   -4.804481|   -5.069741|   -5.446230|   -5.445990|   -4.997211|   -5.457384|    3.351430|
|       12816|  5.0089e+00|  4.7809e-20|  1.2412e-03|  5.0000e-04|  5.0000e-04|  5.0000e-04|   -4.804495|   -5.069732|   -5.446236|   -5.445996|   -4.997227|   -5.516138|    3.351425|
|       12817|  5.0089e+00|  4.7809e-20|  1.2412e-03|  5.0000e-04|  5.0000e-04|  5.0000e-04|   -4.804508|   -5.069722|   -5.446243|   -5.446002|   -4.997244|   -5.577020|    3.351419|
|       12818|  5.0089e+00|  4.7809e-20|  1.2412e-03|  5.0000e-04|  5.0000e-04|  5.0000e-04|   -4.804522|   -5.069713|   -5.446249|   -5.446008|   -4.997260|   -5.640733|    3.351414|
|       12819|  5.0089e+00|  4.7809e-20|  1.2412e-03|  5.0000e-04|  5.0000e-04|  5.0000e-04|   -4.804535|   -5.069704|   -5.446255|   -5.446014|   -4.997276|   -5.707910|    3.351408|
|       12820|  5.0089e+00|  4.7809e-20|  1.2412e-03|  5.0000e-04|  5.0000e-04|  5.0000e-04|   -4.804549|   -5.069694|   -5.446261|   -5.446020|   -4.997292|   -5.780463|    3.351403|
|       12821|  5.0089e+00|  4.7809e-20|  1.2412e-03|  5.0000e-04|  5.0000e-04|  5.0000e-04|   -4.804563|   -5.069685|   -5.446267|   -5.446026|   -4.997308|   -5.854973|    3.351397|
|       12822|  5.0089e+00|  4.7809e-20|  1.2412e-03|  5.0000e-04|  5.0000e-04|  5.0000e-04|   -4.804576|   -5.069676|   -5.446273|   -5.446032|   -4.997324|   -5.936348|    3.351392|
|       12823|  5.0090e+00|  4.7809e-20|  1.2412e-03|  5.0000e-04|  5.0000e-04|  5.0000e-04|   -4.804590|   -5.069666|   -5.446279|   -5.446038|   -4.997340|   -6.022518|    3.351386|
|       12824|  5.0090e+00|  4.7809e-20|  1.2412e-03|  5.0000e-04|  5.0000e-04|  5.0000e-04|   -4.804603|   -5.069657|   -5.446285|   -5.446044|   -4.997356|   -6.112605|    3.351381|
|       12825|  5.0090e+00|  4.7809e-20|  1.2412e-03|  5.0000e-04|  5.0000e-04|  5.0000e-04|   -4.804617|   -5.069648|   -5.446291|   -5.446050|   -4.997372|   -6.201876|    3.351375|
|       12826|  5.0090e+00|  4.7809e-20|  1.2412e-03|  5.0000e-04|  5.0000e-04|  5.0000e-04|   -4.804631|   -5.069638|   -5.446297|   -5.446056|   -4.997388|   -6.291689|    3.351370|
|       12827|  5.0090e+00|  4.7809e-20|  1.2412e-03|  5.0000e-04|  5.0000e-04|  5.0000e-04|   -4.804644|   -5.069629|   -5.446303|   -5.446062|   -4.997404|   -6.372390|    3.351364|
|       12828|  5.0090e+00|  4.7809e-20|  1.2412e-03|  5.0000e-04|  5.0000e-04|  5.0000e-04|   -4.804658|   -5.069620|   -5.446309|   -5.446069|   -4.997420|   -6.452722|    3.351359|
|       12829|  5.0090e+00|  4.7809e-20|  1.2412e-03|  5.0000e-04|  5.0000e-04|  5.0000e-04|   -4.804672|   -5.069610|   -5.446315|   -5.446075|   -4.997436|   -6.544123|    3.351353|
|       12830|  5.0090e+00|  4.7809e-20|  1.2412e-03|  5.0000e-04|  5.0000e-04|  5.0000e-04|   -4.804685|   -5.069601|   -5.446321|   -5.446081|   -4.997453|   -6.615714|    3.351348|
|       12831|  5.0090e+00|  4.7809e-20|  1.2412e-03|  5.0000e-04|  5.0000e-04|  5.0000e-04|   -4.804699|   -5.069592|   -5.446328|   -5.446087|   -4.997469|   -6.670043|    3.351342|
|       12832|  5.0090e+00|  4.7809e-20|  1.2412e-03|  5.0000e-04|  5.0000e-04|  5.0000e-04|   -4.804713|   -5.069582|   -5.446334|   -5.446093|   -4.997485|   -5.726781|    3.351337|
|       12833|  5.0090e+00|  4.7809e-20|  1.2412e-03|  5.0000e-04|  5.0000e-04|  5.0000e-04|   -4.804726|   -5.069573|   -5.446340|   -5.446099|   -4.997501|   -6.727511|    3.351331|
|       12834|  5.0090e+00|  5.2335e-20|  1.2412e-03|  5.0000e-04|  5.0000e-04|  5.0000e-04|   -4.804740|   -5.069564|   -5.446346|   -5.446105|   -4.997517|   -6.740143|    3.351326|
|       12835|  5.0090e+00|  4.8083e-20|  1.2412e-03|  5.0000e-04|  5.0000e-04|  5.0000e-04|   -4.804754|   -5.069554|   -5.446352|   -5.446111|   -4.997533|   -6.741358|    3.351320|
|       12836|  5.0090e+00|  5.1897e-20|  1.2412e-03|  5.0000e-04|  5.0000e-04|  5.0000e-04|   -4.804767|   -5.069545|   -5.446358|   -5.446117|   -4.997549|   -6.746983|    3.351315|
|       12837|  5.0090e+00|  4.8457e-20|  1.2412e-03|  5.0000e-04|  5.0000e-04|  5.0000e-04|   -4.804781|   -5.069536|   -5.446364|   -5.446123|   -4.997565|   -6.748740|    3.351310|
|       12838|  5.0091e+00|  5.1628e-20|  1.2412e-03|  5.0000e-04|  5.0000e-04|  5.0000e-04|   -4.804795|   -5.069526|   -5.446370|   -5.446129|   -4.997582|   -6.733294|    3.351304|
|       12839|  5.0091e+00|  4.9013e-20|  1.2412e-03|  5.0000e-04|  5.0000e-04|  5.0000e-04|   -4.804808|   -5.069517|   -5.446376|   -5.446136|   -4.997598|   -6.752408|    3.351299|
|       12840|  5.0091e+00|  5.1461e-20|  1.2412e-03|  5.0000e-04|  5.0000e-04|  5.0000e-04|   -4.804822|   -5.069508|   -5.446383|   -5.446142|   -4.997614|   -6.751620|    3.351293|
|       12841|  5.0091e+00|  4.9692e-20|  1.2412e-03|  5.0000e-04|  5.0000e-04|  5.0000e-04|   -4.804836|   -5.069498|   -5.446389|   -5.446148|   -4.997630|   -6.751380|    3.351288|
|       12842|  5.0091e+00|  5.1412e-20|  1.2412e-03|  5.0000e-04|  5.0000e-04|  5.0000e-04|   -4.804850|   -5.069489|   -5.446395|   -5.446154|   -4.997646|   -6.752921|    3.351283|
|       12843|  5.0091e+00|  5.0382e-20|  1.2412e-03|  5.0000e-04|  5.0000e-04|  5.0000e-04|   -4.804863|   -5.069480|   -5.446401|   -5.446160|   -4.997662|   -6.752785|    3.351277|
|       12844|  5.0091e+00|  5.1488e-20|  1.2412e-03|  5.0000e-04|  5.0000e-04|  5.0000e-04|   -4.804877|   -5.069470|   -5.446407|   -5.446166|   -4.997679|   -6.755243|    3.351272|
|       12845|  5.0091e+00|  5.0999e-20|  1.2412e-03|  5.0000e-04|  5.0000e-04|  5.0000e-04|   -4.804891|   -5.069461|   -5.446413|   -5.446172|   -4.997695|   -6.755915|    3.351266|
|       12846|  5.0091e+00|  5.1669e-20|  1.2412e-03|  5.0000e-04|  5.0000e-04|  5.0000e-04|   -4.804905|   -5.069452|   -5.446419|   -5.446178|   -4.997711|   -6.753512|    3.351261|
|       12847|  5.0091e+00|  5.1518e-20|  1.2412e-03|  5.0000e-04|  5.0000e-04|  5.0000e-04|   -4.804918|   -5.069442|   -5.446426|   -5.446185|   -4.997727|   -6.756041|    3.351256|
|       12848|  5.0091e+00|  5.1922e-20|  1.2412e-03|  5.0000e-04|  5.0000e-04|  5.0000e-04|   -4.804932|   -5.069433|   -5.446432|   -5.446191|   -4.997743|   -6.751801|    3.351250|
|       12849|  5.0091e+00|  5.1951e-20|  1.2412e-03|  5.0000e-04|  5.0000e-04|  5.0000e-04|   -4.804946|   -5.069424|   -5.446438|   -5.446197|   -4.997760|   -6.757818|    3.351245|
|       12850|  5.0091e+00|  5.2213e-20|  1.2412e-03|  5.0000e-04|  5.0000e-04|  5.0000e-04|   -4.804960|   -5.069414|   -5.446444|   -5.446203|   -4.997776|   -6.755891|    3.351240|
|       12851|  5.0091e+00|  5.2322e-20|  1.2412e-03|  5.0000e-04|  5.0000e-04|  5.0000e-04|   -4.804974|   -5.069405|   -5.446450|   -5.446209|   -4.997792|   -6.744348|    3.351234|
|       12852|  5.0091e+00|  5.2517e-20|  1.2412e-03|  5.0000e-04|  5.0000e-04|  5.0000e-04|   -4.804987|   -5.069396|   -5.446456|   -5.446215|   -4.997808|   -6.627024|    3.351229|
|       12853|  5.0091e+00|  5.2654e-20|  1.2412e-03|  5.0000e-04|  5.0000e-04|  5.0000e-04|   -4.805001|   -5.069387|   -5.446463|   -5.446222|   -4.997824|   -6.264456|    3.351224|
|       12854|  5.0091e+00|  5.2816e-20|  1.2412e-03|  5.0000e-04|  5.0000e-04|  5.0000e-04|   -4.805015|   -5.069377|   -5.446469|   -5.446228|   -4.997841|   -6.619756|    3.351218|
|       12855|  5.0091e+00|  5.2957e-20|  1.2412e-03|  5.0000e-04|  5.0000e-04|  5.0000e-04|   -4.805029|   -5.069368|   -5.446475|   -5.446234|   -4.997857|   -6.600239|    3.351213|
|       12856|  5.0091e+00|  5.3102e-20|  1.2412e-03|  5.0000e-04|  5.0000e-04|  5.0000e-04|   -4.805043|   -5.069359|   -5.446481|   -5.446240|   -4.997873|   -6.614747|    3.351208|
|       12857|  5.0091e+00|  5.3238e-20|  1.2412e-03|  5.0000e-04|  5.0000e-04|  5.0000e-04|   -4.805056|   -5.069349|   -5.446487|   -5.446246|   -4.997889|   -6.674109|    3.351202|
|       12858|  5.0091e+00|  5.3372e-20|  1.2412e-03|  5.0000e-04|  5.0000e-04|  5.0000e-04|   -4.805070|   -5.069340|   -5.446493|   -5.446252|   -4.997906|   -6.659102|    3.351197|
|       12859|  5.0091e+00|  5.3501e-20|  1.2412e-03|  5.0000e-04|  5.0000e-04|  5.0000e-04|   -4.805084|   -5.069331|   -5.446500|   -5.446259|   -4.997922|   -6.703194|    3.351192|
|       12860|  5.0091e+00|  5.3626e-20|  1.2412e-03|  5.0000e-04|  5.0000e-04|  5.0000e-04|   -4.805098|   -5.069321|   -5.446506|   -5.446265|   -4.997938|   -6.689953|    3.351187|
|       12861|  5.0091e+00|  5.3746e-20|  1.2412e-03|  5.0000e-04|  5.0000e-04|  5.0000e-04|   -4.805112|   -5.069312|   -5.446512|   -5.446271|   -4.997954|   -6.727381|    3.351181|
|       12862|  5.0091e+00|  5.3862e-20|  1.2412e-03|  5.0000e-04|  5.0000e-04|  5.0000e-04|   -4.805126|   -5.069303|   -5.446518|   -5.446277|   -4.997971|   -6.702167|    3.351176|
|       12863|  5.0091e+00|  5.3975e-20|  1.2412e-03|  5.0000e-04|  5.0000e-04|  5.0000e-04|   -4.805139|   -5.069293|   -5.446525|   -5.446283|   -4.997987|   -6.728193|    3.351171|
|       12864|  5.0091e+00|  5.4083e-20|  1.2412e-03|  5.0000e-04|  5.0000e-04|  5.0000e-04|   -4.805153|   -5.069284|   -5.446531|   -5.446290|   -4.998003|   -6.732896|    3.351166|
|       12865|  5.0091e+00|  5.4187e-20|  1.2412e-03|  5.0000e-04|  5.0000e-04|  5.0000e-04|   -4.805167|   -5.069275|   -5.446537|   -5.446296|   -4.998020|   -6.755377|    3.351160|
|       12866|  5.0091e+00|  5.4288e-20|  1.2412e-03|  5.0000e-04|  5.0000e-04|  5.0000e-04|   -4.805181|   -5.069266|   -5.446543|   -5.446302|   -4.998036|   -6.744880|    3.351155|
|       12867|  5.0091e+00|  5.4385e-20|  1.2412e-03|  5.0000e-04|  5.0000e-04|  5.0000e-04|   -4.805195|   -5.069256|   -5.446549|   -5.446308|   -4.998052|   -6.761883|    3.351150|
|       12868|  5.0091e+00|  5.4478e-20|  1.2412e-03|  5.0000e-04|  5.0000e-04|  5.0000e-04|   -4.805209|   -5.069247|   -5.446556|   -5.446314|   -4.998069|   -6.748664|    3.351145|
|       12869|  5.0091e+00|  5.4568e-20|  1.2412e-03|  5.0000e-04|  5.0000e-04|  5.0000e-04|   -4.805223|   -5.069238|   -5.446562|   -5.446321|   -4.998085|   -6.766718|    3.351139|
|       12870|  5.0091e+00|  5.4655e-20|  1.2412e-03|  5.0000e-04|  5.0000e-04|  5.0000e-04|   -4.805237|   -5.069228|   -5.446568|   -5.446327|   -4.998101|   -6.759748|    3.351134|
|       12871|  5.0091e+00|  5.4738e-20|  1.2412e-03|  5.0000e-04|  5.0000e-04|  5.0000e-04|   -4.805251|   -5.069219|   -5.446574|   -5.446333|   -4.998117|   -6.769336|    3.351129|
|       12872|  5.0091e+00|  5.4818e-20|  1.2412e-03|  5.0000e-04|  5.0000e-04|  5.0000e-04|   -4.805264|   -5.069210|   -5.446581|   -5.446339|   -4.998134|   -6.763728|    3.351124|
|       12873|  5.0091e+00|  5.4895e-20|  1.2412e-03|  5.0000e-04|  5.0000e-04|  5.0000e-04|   -4.805278|   -5.069200|   -5.446587|   -5.446346|   -4.998150|   -6.770514|    3.351119|
|       12874|  5.0091e+00|  5.4969e-20|  1.2412e-03|  5.0000e-04|  5.0000e-04|  5.0000e-04|   -4.805292|   -5.069191|   -5.446593|   -5.446352|   -4.998166|   -6.215223|    3.351113|
|       12875|  5.0091e+00|  5.5041e-20|  1.2412e-03|  5.0000e-04|  5.0000e-04|  5.0000e-04|   -4.805306|   -5.069182|   -5.446599|   -5.446358|   -4.998183|   -6.770721|    3.351108|
|       12876|  5.0091e+00|  5.5109e-20|  1.2412e-03|  5.0000e-04|  5.0000e-04|  5.0000e-04|   -4.805320|   -5.069173|   -5.446606|   -5.446364|   -4.998199|   -6.765996|    3.351103|
|       12877|  5.0091e+00|  5.5175e-20|  1.2412e-03|  5.0000e-04|  5.0000e-04|  5.0000e-04|   -4.805334|   -5.069163|   -5.446612|   -5.446371|   -4.998216|   -6.771129|    3.351098|
|       12878|  5.0091e+00|  5.5238e-20|  1.2412e-03|  5.0000e-04|  5.0000e-04|  5.0000e-04|   -4.805348|   -5.069154|   -5.446618|   -5.446377|   -4.998232|   -6.494343|    3.351093|
|       12879|  5.0091e+00|  5.5299e-20|  1.2412e-03|  5.0000e-04|  5.0000e-04|  5.0000e-04|   -4.805362|   -5.069145|   -5.446624|   -5.446383|   -4.998248|   -6.424585|    3.351088|
|       12880|  5.0091e+00|  5.5357e-20|  1.2412e-03|  5.0000e-04|  5.0000e-04|  5.0000e-04|   -4.805376|   -5.069135|   -5.446631|   -5.446389|   -4.998265|   -6.539966|    3.351082|

scontrol show job 1106284
JobId=1106284 JobName=m9_medium
   UserId=anthonyy(3152141) GroupId=anthonyy(3152141) MCS_label=N/A
   Priority=700668 Nice=0 Account=rrg-jphickey QOS=normal
   JobState=COMPLETING Reason=TimeLimit Dependency=(null)
   Requeue=0 Restarts=0 BatchFlag=1 Reboot=0 ExitCode=0:15
   RunTime=18:00:23 TimeLimit=18:00:00 TimeMin=N/A
   SubmitTime=2026-03-04T02:47:40 EligibleTime=2026-03-04T02:47:40
   AccrueTime=2026-03-04T02:47:40
   StartTime=2026-03-04T03:06:48 EndTime=2026-03-04T21:07:11 Deadline=N/A
   SuspendTime=None SecsPreSuspend=0 LastSchedEval=2026-03-04T03:06:48 Scheduler=Main
   Partition=compute AllocNode:Sid=tri-login02:235264
   ReqNodeList=(null) ExcNodeList=(null)
   NodeList=tri[0569,1149]
   BatchHost=tri0569
   NumNodes=2 NumCPUs=384 NumTasks=128 CPUs/Task=1 ReqB:S:C:T=0:0:*:*
   ReqTRES=cpu=128,mem=1534000M,node=2,billing=128
   AllocTRES=cpu=384,mem=1534000M,node=2,billing=384
   Socks/Node=* NtasksPerN:B:S:C=64:0:*:* CoreSpec=*
   MinCPUsNode=64 MinMemoryNode=767000M MinTmpDiskNode=0
   Features=(null) DelayBoot=00:00:00
   OverSubscribe=NO Contiguous=0 Licenses=(null) Network=(null)
   Command=/scratch/anthonyy/reentry/orion/cases/m9_medium/run.sh
   WorkDir=/scratch/anthonyy/reentry/orion/cases/m9_medium
   Comment=/opt/slurm/bin/sbatch --export=NONE --get-user-env=L run.sh 
   StdErr=/scratch/anthonyy/reentry/orion/cases/m9_medium/orion_1106284.err
   StdIn=/dev/null
   StdOut=/scratch/anthonyy/reentry/orion/cases/m9_medium/orion_1106284.out
   TresPerTask=cpu=1
   

sacct -j 1106284
JobID           JobName    Account    Elapsed  MaxVMSize     MaxRSS  SystemCPU    UserCPU ExitCode 
------------ ---------- ---------- ---------- ---------- ---------- ---------- ---------- -------- 
1106284       m9_medium rrg-jphic+   18:00:23                        00:00.122  00:00.587      0:0 
1106284.bat+      batch rrg-jphic+   18:00:23          0      9872K  00:00.122  00:00.587     0:15 
1106284.ext+     extern rrg-jphic+   18:00:23                         00:00:00   00:00:00      0:0 
1106284.0       SU2_CFD rrg-jphic+   18:00:18                         00:00:00   00:00:00      0:0 

