Nodes: tri[0143-0144]
Tasks: 128
NPN:   64

-------------------------------------------------------------------------
|    ___ _   _ ___                                                      |
|   / __| | | |_  )   Release 7.5.1 "Blackbird"                         |
|   \__ \ |_| |/ /                                                      |
|   |___/\___//___|   Suite (Computational Fluid Dynamics Code)         |
|                                                                       |
-------------------------------------------------------------------------
| SU2 Project Website: https://su2code.github.io                        |
|                                                                       |
| The SU2 Project is maintained by the SU2 Foundation                   |
| (http://su2foundation.org)                                            |
-------------------------------------------------------------------------
| Copyright 2012-2023, SU2 Contributors                                 |
|                                                                       |
| SU2 is free software; you can redistribute it and/or                  |
| modify it under the terms of the GNU Lesser General Public            |
| License as published by the Free Software Foundation; either          |
| version 2.1 of the License, or (at your option) any later version.    |
|                                                                       |
| SU2 is distributed in the hope that it will be useful,                |
| but WITHOUT ANY WARRANTY; without even the implied warranty of        |
| MERCHANTABILITY or FITNESS FOR A PARTICULAR PURPOSE. See the GNU      |
| Lesser General Public License for more details.                       |
|                                                                       |
| You should have received a copy of the GNU Lesser General Public      |
| License along with SU2. If not, see <http://www.gnu.org/licenses/>.   |
-------------------------------------------------------------------------

Parsing config file for zone 0

----------------- Physical Case Definition ( Zone 0 ) -------------------
Compressible RANS equations.
Turbulence model: Negative-Spalart-Allmaras
Hybrid RANS/LES: No Hybrid RANS/LES
Mach number: 9.
Angle of attack (AoA): 0 deg, and angle of sideslip (AoS): 0 deg.
Reynolds number: 1.02934e+09. Reference length 5.
Reading and writing binary SU2 native restart files.
Read flow solution from: restart_flow.dat.
Non-Dimensional simulation (V=1.0, Rho=1.0, T=1.0 at the farfield).
The reference area will be computed using y(2D) or z(3D) projection.
The semi-span will be computed using the max y(3D) value.
The reference length is 0.64607 m.
Reference origin for moment evaluation is (0.25, 0, 0).
Surface(s) where the force coefficients are evaluated: ORION_SURFACE.

Input mesh file name: medium.su2

--------------- Space Numerical Integration ( Zone 0 ) ------------------
Jameson-Schmidt-Turkel scheme (2nd order in space) for the flow inviscid terms.
JST viscous coefficients (2nd & 4th): 0.7, 0.05.
The method includes a grid stretching correction (p = 0.3).
Scalar upwind solver for the turbulence model.
First order integration in space.
Average of gradients with correction (viscous flow terms).
Average of gradients with correction (viscous turbulence terms).
Gradient for upwind reconstruction: Green-Gauss.
Gradient for viscous and source terms: Green-Gauss.

--------------- Time Numerical Integration  ( Zone 0 ) ------------------
Local time stepping (steady state simulation).
Euler implicit method for the flow equations.
FGMRES is used for solving the linear system.
Using a ILU(0) preconditioning.
Convergence criteria of the linear solver: 1e-05.
Max number of linear iterations: 100.
No CFL adaptation.
Courant-Friedrichs-Lewy number:    0.001
Euler implicit time integration for the turbulence model.

------------------ Convergence Criteria  ( Zone 0 ) ---------------------
Maximum number of solver subiterations: 999999.
Begin convergence monitoring at iteration 5.
Residual minimum value: 1e-8.
Cauchy series min. value: 1e-10.
Number of Cauchy elements: 100.
Begin windowed time average at iteration 0.

-------------------- Output Information ( Zone 0 ) ----------------------
File writing frequency: 
+------------------------------------+
|                     File| Frequency|
+------------------------------------+
|                  RESTART|       150|
|                 PARAVIEW|       150|
|         SURFACE_PARAVIEW|       150|
+------------------------------------+
Writing the convergence history file every 1 inner iterations.
Writing the screen convergence history every 1 inner iterations.
The tabular file format is CSV (.csv).
Convergence history file name: history.
Forces breakdown file name: forces_breakdown.dat.
Surface file name: surface_flow.
Volume file name: flow.
Restart file name: restart_flow.

------------- Config File Boundary Information ( Zone 0 ) ---------------
+-----------------------------------------------------------------------+
|                        Marker Type|                        Marker Name|
+-----------------------------------------------------------------------+
|                          Far-field|                           FARFIELD|
+-----------------------------------------------------------------------+
|                     Heat flux wall|                      ORION_SURFACE|
+-----------------------------------------------------------------------+

-------------------- Output Preprocessing ( Zone 0 ) --------------------

WARNING: SURFACE_PRESSURE_DROP can only be computed for at least 2 surfaces (outlet, inlet, ...)

Screen output fields: INNER_ITER, WALL_TIME, MIN_DELTA_TIME, MAX_DELTA_TIME, MIN_CFL, MAX_CFL, AVG_CFL, RMS_DENSITY, RMS_MOMENTUM-X, RMS_MOMENTUM-Y, RMS_MOMENTUM-Z, RMS_ENERGY, RMS_NU_TILDE, DRAG
History output group(s): ITER, RMS_RES
Convergence field(s): RMS_DENSITY
Warning: No (valid) fields chosen for time convergence monitoring. Time convergence monitoring inactive.
Volume output fields: COORDINATES, SOLUTION, PRIMITIVE

------------------- Geometry Preprocessing ( Zone 0 ) -------------------
Three dimensional problem.
26648118 grid points before partitioning.
74775078 volume elements before partitioning.
2 surface markers.
1778 boundary elements in index 0 (Marker = FARFIELD).
811194 boundary elements in index 1 (Marker = ORION_SURFACE).
Executing the partitioning functions.
Building the graph adjacency structure.
Calling ParMETIS... graph partitioning complete (2763415 edge cuts).
Distributing ParMETIS coloring.
Rebalancing vertices.
Rebalancing volume element connectivity.
Rebalancing markers and surface elements.
29624692 vertices including ghost points. 
78760198 interior elements including halo cells. 
33893606 tetrahedra.
44681610 prisms.
184982 pyramids.
Establishing MPI communication patterns.
Setting point connectivity.
Renumbering points (Reverse Cuthill McKee Ordering).
Recomputing point connectivity.
Setting element connectivity.
Checking the numerical grid orientation.
All volume elements are correctly orientend.
All surface elements are correctly orientend.
Identifying edges and vertices.
Setting the control volume structure.
Volume of the computational grid: 535139.
Searching for the closest normal neighbors to the surfaces.
Storing a mapping from global to local point index.
Compute the surface curvature.
Max K: 137.039. Mean K: 3.89106. Standard deviation K: 7.38179.
Checking for periodicity.
Computing mesh quality statistics for the dual control volumes.
+--------------------------------------------------------------+
|           Mesh Quality Metric|        Minimum|        Maximum|
+--------------------------------------------------------------+
|    Orthogonality Angle (deg.)|        54.3699|             90|
|     CV Face Area Aspect Ratio|        1.00113|         100241|
|           CV Sub-Volume Ratio|         1.0025|        34.9431|
+--------------------------------------------------------------+
Finding max control volume width.
Communicating number of neighbors.
Reference area = 11.5308 m^2.
Semi-span length = 2.49998 m.
Wetted area = 57.9043 m^2.
Area projection in the x-plane = 19.6335 m^2, y-plane = 11.5309 m^2, z-plane = 11.5308 m^2.
Max. coordinate in the x-direction = 2.575 m, y-direction = 2.49998 m, z-direction = 2.5 m.
Min. coordinate in the x-direction = -0.71 m, y-direction = -2.49999 m, z-direction = -2.49999 m.
Computing wall distances.

-------------------- Solver Preprocessing ( Zone 0 ) --------------------
Viscous flow: Computing pressure using the ideal gas law
based on the free-stream temperature and a density computed
from the Reynolds number.
Force coefficients computed using free-stream values.

-- Models:
+------------------------------------------------------------------------------+
|          Viscosity Model|        Conductivity Model|              Fluid Model|
+------------------------------------------------------------------------------+
|               SUTHERLAND|          CONSTANT_PRANDTL|             STANDARD_AIR|
+------------------------------------------------------------------------------+
-- Fluid properties:
+------------------------------------------------------------------------------+
|                  Name|    Dim. value|    Ref. value|      Unit|Non-dim. value|
+------------------------------------------------------------------------------+
|        Ref. Viscosity|     1.716e-05|        3683.6|   N.s/m^2|   4.65848e-09|
|      Sutherland Temp.|        273.15|        288.15|         K|      0.947944|
|     Sutherland Const.|         110.4|        288.15|         K|      0.383134|
+------------------------------------------------------------------------------+
|        Prandtl (Lam.)|             -|             -|         -|          0.72|
|       Prandtl (Turb.)|             -|             -|         -|           0.9|
+------------------------------------------------------------------------------+
|          Gas Constant|       287.058|       32552.4|  N.m/kg.K|    0.00881834|
|      Spec. Heat Ratio|             -|             -|         -|           1.4|
+------------------------------------------------------------------------------+
-- Initial and free-stream conditions:
+------------------------------------------------------------------------------+
|                  Name|    Dim. value|    Ref. value|      Unit|Non-dim. value|
+------------------------------------------------------------------------------+
|       Static Pressure|       99485.6|   1.12817e+07|        Pa|    0.00881834|
|               Density|       1.20274|       1.20274|    kg/m^3|             1|
|           Temperature|        288.15|        288.15|         K|             1|
|          Total Energy|   4.89677e+06|   9.37997e+06|   m^2/s^2|      0.522046|
|            Velocity-X|       3062.67|       3062.67|       m/s|             1|
|            Velocity-Y|             0|       3062.67|       m/s|             0|
|            Velocity-Z|             0|       3062.67|       m/s|             0|
|    Velocity Magnitude|       3062.67|       3062.67|       m/s|             1|
+------------------------------------------------------------------------------+
|             Viscosity|    1.7893e-05|        3683.6|   N.s/m^2|   4.85747e-09|
|          Conductivity|             -|    1.1991e+08|   W/m^2.K|             -|
|     Turb. Kin. Energy|       35174.9|   9.37997e+06|   m^2/s^2|       0.00375|
|     Spec. Dissipation|   2.36441e+08|       3062.67|       1/s|       77200.7|
+------------------------------------------------------------------------------+
|           Mach Number|             -|             -|         -|             9|
|       Reynolds Number|             -|             -|         -|   1.02934e+09|
+------------------------------------------------------------------------------+
Initialize Jacobian structure (Navier-Stokes). MG level: 0.
Initialize Jacobian structure (SA model).

------------------- Numerics Preprocessing ( Zone 0 ) -------------------

----------------- Integration Preprocessing ( Zone 0 ) ------------------

------------------- Iteration Preprocessing ( Zone 0 ) ------------------
Euler/Navier-Stokes/RANS fluid iteration.

------------------------------ Begin Solver -----------------------------

Simulation Run using the Single-zone Driver
WARNING: SU2 was not compiled for an AVX-capable architecture. Performance could be better,
         see https://su2code.github.io/docs_v7/Build-SU2-Linux-MacOS/#compiler-optimizations
+-------------------------------------------------------------------------------------------------------------------------------------------------------------------------------------+
|  Inner_Iter|   Time(sec)|      Min DT|      Max DT|     Min CFL|     Max CFL|     Avg CFL|    rms[Rho]|   rms[RhoU]|   rms[RhoV]|   rms[RhoW]|   rms[RhoE]|     rms[nu]|          CD|
+-------------------------------------------------------------------------------------------------------------------------------------------------------------------------------------+
|           0|  2.0021e+00|  7.5395e-11|  2.4824e-03|  1.0000e-03|  1.0000e-03|  1.0000e-03|   -4.912476|   -5.122379|   -5.529076|   -5.528784|   -5.117865|  -12.949037|    4.121631|
|           1|  1.8686e+00|  7.5394e-11|  2.4824e-03|  1.0000e-03|  1.0000e-03|  1.0000e-03|   -4.912497|   -5.122392|   -5.529111|   -5.528820|   -5.117895|  -12.949036|    4.121513|
|           2|  1.8213e+00|  7.5393e-11|  2.4824e-03|  1.0000e-03|  1.0000e-03|  1.0000e-03|   -4.912518|   -5.122405|   -5.529147|   -5.528855|   -5.117925|  -12.949035|    4.121394|
|           3|  1.7948e+00|  7.5393e-11|  2.4824e-03|  1.0000e-03|  1.0000e-03|  1.0000e-03|   -4.912539|   -5.122418|   -5.529182|   -5.528891|   -5.117955|  -12.949034|    4.121275|
|           4|  1.7796e+00|  7.5392e-11|  2.4824e-03|  1.0000e-03|  1.0000e-03|  1.0000e-03|   -4.912560|   -5.122431|   -5.529218|   -5.528926|   -5.117985|  -12.949033|    4.121156|
|           5|  1.7716e+00|  7.5391e-11|  2.4824e-03|  1.0000e-03|  1.0000e-03|  1.0000e-03|   -4.912580|   -5.122444|   -5.529253|   -5.528961|   -5.118015|  -12.949032|    4.121037|
|           6|  1.7654e+00|  7.5390e-11|  2.4824e-03|  1.0000e-03|  1.0000e-03|  1.0000e-03|   -4.912601|   -5.122457|   -5.529289|   -5.528997|   -5.118044|  -12.949031|    4.120918|
|           7|  1.7645e+00|  7.5389e-11|  2.4824e-03|  1.0000e-03|  1.0000e-03|  1.0000e-03|   -4.912622|   -5.122470|   -5.529324|   -5.529032|   -5.118074|  -12.949030|    4.120799|
|           8|  1.7569e+00|  7.5388e-11|  2.4824e-03|  1.0000e-03|  1.0000e-03|  1.0000e-03|   -4.912643|   -5.122483|   -5.529359|   -5.529067|   -5.118104|  -12.949029|    4.120680|
|           9|  1.7549e+00|  7.5388e-11|  2.4824e-03|  1.0000e-03|  1.0000e-03|  1.0000e-03|   -4.912663|   -5.122496|   -5.529395|   -5.529103|   -5.118134|  -12.949027|    4.120561|
|          10|  1.7557e+00|  7.5387e-11|  2.4824e-03|  1.0000e-03|  1.0000e-03|  1.0000e-03|   -4.912684|   -5.122509|   -5.529430|   -5.529138|   -5.118164|  -12.949026|    4.120441|
|          11|  1.7545e+00|  7.5386e-11|  2.4824e-03|  1.0000e-03|  1.0000e-03|  1.0000e-03|   -4.912705|   -5.122522|   -5.529465|   -5.529173|   -5.118193|  -12.949025|    4.120322|
|          12|  1.7508e+00|  7.5385e-11|  2.4824e-03|  1.0000e-03|  1.0000e-03|  1.0000e-03|   -4.912725|   -5.122535|   -5.529501|   -5.529209|   -5.118223|  -12.949024|    4.120202|
|          13|  1.7494e+00|  7.5384e-11|  2.4824e-03|  1.0000e-03|  1.0000e-03|  1.0000e-03|   -4.912746|   -5.122548|   -5.529536|   -5.529244|   -5.118253|  -12.949022|    4.120083|
|          14|  1.7467e+00|  7.5383e-11|  2.4824e-03|  1.0000e-03|  1.0000e-03|  1.0000e-03|   -4.912767|   -5.122561|   -5.529571|   -5.529279|   -5.118282|  -12.949021|    4.119963|
|          15|  1.7434e+00|  7.5382e-11|  2.4824e-03|  1.0000e-03|  1.0000e-03|  1.0000e-03|   -4.912787|   -5.122574|   -5.529607|   -5.529315|   -5.118312|  -12.949020|    4.119843|
|          16|  1.7413e+00|  7.5382e-11|  2.4824e-03|  1.0000e-03|  1.0000e-03|  1.0000e-03|   -4.912808|   -5.122587|   -5.529642|   -5.529350|   -5.118342|  -12.949018|    4.119723|
|          17|  1.7396e+00|  7.5381e-11|  2.4824e-03|  1.0000e-03|  1.0000e-03|  1.0000e-03|   -4.912828|   -5.122600|   -5.529677|   -5.529385|   -5.118371|  -12.949017|    4.119603|
|          18|  1.7388e+00|  7.5380e-11|  2.4824e-03|  1.0000e-03|  1.0000e-03|  1.0000e-03|   -4.912849|   -5.122613|   -5.529712|   -5.529420|   -5.118401|  -12.949015|    4.119483|
|          19|  1.7368e+00|  7.5379e-11|  2.4824e-03|  1.0000e-03|  1.0000e-03|  1.0000e-03|   -4.912869|   -5.122627|   -5.529748|   -5.529455|   -5.118430|  -12.949014|    4.119363|
|          20|  1.7345e+00|  7.5378e-11|  2.4824e-03|  1.0000e-03|  1.0000e-03|  1.0000e-03|   -4.912890|   -5.122640|   -5.529783|   -5.529491|   -5.118459|  -12.949012|    4.119243|
|          21|  1.7339e+00|  7.5377e-11|  2.4824e-03|  1.0000e-03|  1.0000e-03|  1.0000e-03|   -4.912910|   -5.122653|   -5.529818|   -5.529526|   -5.118489|  -12.949011|    4.119123|
|          22|  1.7330e+00|  7.5376e-11|  2.4824e-03|  1.0000e-03|  1.0000e-03|  1.0000e-03|   -4.912930|   -5.122666|   -5.529853|   -5.529561|   -5.118518|  -12.949009|    4.119002|
|          23|  1.7336e+00|  7.5376e-11|  2.4824e-03|  1.0000e-03|  1.0000e-03|  1.0000e-03|   -4.912951|   -5.122679|   -5.529888|   -5.529596|   -5.118547|  -12.949008|    4.118882|
|          24|  1.7338e+00|  7.5375e-11|  2.4824e-03|  1.0000e-03|  1.0000e-03|  1.0000e-03|   -4.912971|   -5.122692|   -5.529923|   -5.529631|   -5.118577|  -12.949006|    4.118761|
|          25|  1.7353e+00|  7.5374e-11|  2.4824e-03|  1.0000e-03|  1.0000e-03|  1.0000e-03|   -4.912991|   -5.122705|   -5.529958|   -5.529666|   -5.118606|  -12.949005|    4.118641|
|          26|  1.7358e+00|  7.5373e-11|  2.4824e-03|  1.0000e-03|  1.0000e-03|  1.0000e-03|   -4.913012|   -5.122718|   -5.529994|   -5.529701|   -5.118635|  -12.949003|    4.118520|
|          27|  1.7366e+00|  7.5372e-11|  2.4824e-03|  1.0000e-03|  1.0000e-03|  1.0000e-03|   -4.913032|   -5.122731|   -5.530029|   -5.529736|   -5.118664|  -12.949001|    4.118399|
|          28|  1.7404e+00|  7.5371e-11|  2.4824e-03|  1.0000e-03|  1.0000e-03|  1.0000e-03|   -4.913052|   -5.122745|   -5.530064|   -5.529771|   -5.118693|  -12.949000|    4.118278|
|          29|  1.7401e+00|  7.5370e-11|  2.4824e-03|  1.0000e-03|  1.0000e-03|  1.0000e-03|   -4.913072|   -5.122758|   -5.530099|   -5.529806|   -5.118723|  -12.948998|    4.118158|
|          30|  1.7401e+00|  7.5370e-11|  2.4824e-03|  1.0000e-03|  1.0000e-03|  1.0000e-03|   -4.913092|   -5.122771|   -5.530134|   -5.529841|   -5.118752|  -12.948996|    4.118037|
|          31|  1.7410e+00|  7.5369e-11|  2.4824e-03|  1.0000e-03|  1.0000e-03|  1.0000e-03|   -4.913113|   -5.122784|   -5.530169|   -5.529876|   -5.118781|  -12.948995|    4.117915|
|          32|  1.7410e+00|  7.5368e-11|  2.4824e-03|  1.0000e-03|  1.0000e-03|  1.0000e-03|   -4.913133|   -5.122797|   -5.530204|   -5.529911|   -5.118810|  -12.948993|    4.117794|
|          33|  1.7432e+00|  7.5367e-11|  2.4824e-03|  1.0000e-03|  1.0000e-03|  1.0000e-03|   -4.913153|   -5.122811|   -5.530239|   -5.529946|   -5.118839|  -12.948991|    4.117673|
|          34|  1.7431e+00|  7.5366e-11|  2.4824e-03|  1.0000e-03|  1.0000e-03|  1.0000e-03|   -4.913173|   -5.122824|   -5.530274|   -5.529981|   -5.118867|  -12.948989|    4.117552|
|          35|  1.7423e+00|  7.5365e-11|  2.4824e-03|  1.0000e-03|  1.0000e-03|  1.0000e-03|   -4.913193|   -5.122837|   -5.530309|   -5.530016|   -5.118896|  -12.948987|    4.117430|
|          36|  1.7422e+00|  7.5365e-11|  2.4824e-03|  1.0000e-03|  1.0000e-03|  1.0000e-03|   -4.913213|   -5.122850|   -5.530344|   -5.530051|   -5.118925|  -12.948985|    4.117309|
|          37|  1.7394e+00|  7.5364e-11|  2.4824e-03|  1.0000e-03|  1.0000e-03|  1.0000e-03|   -4.913233|   -5.122863|   -5.530379|   -5.530086|   -5.118954|  -12.948983|    4.117187|
|          38|  1.7368e+00|  7.5363e-11|  2.4824e-03|  1.0000e-03|  1.0000e-03|  1.0000e-03|   -4.913253|   -5.122877|   -5.530414|   -5.530121|   -5.118983|  -12.948982|    4.117066|
|          39|  1.7351e+00|  7.5362e-11|  2.4824e-03|  1.0000e-03|  1.0000e-03|  1.0000e-03|   -4.913273|   -5.122890|   -5.530449|   -5.530156|   -5.119011|  -12.948980|    4.116944|
|          40|  1.7318e+00|  7.5361e-11|  2.4824e-03|  1.0000e-03|  1.0000e-03|  1.0000e-03|   -4.913293|   -5.122903|   -5.530484|   -5.530191|   -5.119040|  -12.948978|    4.116822|
|          41|  1.7280e+00|  7.5360e-11|  2.4824e-03|  1.0000e-03|  1.0000e-03|  1.0000e-03|   -4.913313|   -5.122916|   -5.530518|   -5.530226|   -5.119069|  -12.948976|    4.116700|
|          42|  1.7239e+00|  7.5359e-11|  2.4824e-03|  1.0000e-03|  1.0000e-03|  1.0000e-03|   -4.913332|   -5.122930|   -5.530553|   -5.530261|   -5.119097|  -12.948974|    4.116578|
|          43|  1.7207e+00|  7.5359e-11|  2.4824e-03|  1.0000e-03|  1.0000e-03|  1.0000e-03|   -4.913352|   -5.122943|   -5.530588|   -5.530295|   -5.119126|  -12.948972|    4.116456|
|          44|  1.7170e+00|  7.5358e-11|  2.4824e-03|  1.0000e-03|  1.0000e-03|  1.0000e-03|   -4.913372|   -5.122956|   -5.530623|   -5.530330|   -5.119155|  -12.948969|    4.116334|
|          45|  1.7143e+00|  7.5357e-11|  2.4824e-03|  1.0000e-03|  1.0000e-03|  1.0000e-03|   -4.913392|   -5.122970|   -5.530658|   -5.530365|   -5.119183|  -12.948967|    4.116212|
|          46|  1.7110e+00|  7.5356e-11|  2.4824e-03|  1.0000e-03|  1.0000e-03|  1.0000e-03|   -4.913412|   -5.122983|   -5.530693|   -5.530400|   -5.119212|  -12.948965|    4.116089|
|          47|  1.7079e+00|  7.5355e-11|  2.4824e-03|  1.0000e-03|  1.0000e-03|  1.0000e-03|   -4.913431|   -5.122996|   -5.530727|   -5.530435|   -5.119240|  -12.948963|    4.115967|
|          48|  1.7050e+00|  7.5354e-11|  2.4824e-03|  1.0000e-03|  1.0000e-03|  1.0000e-03|   -4.913451|   -5.123009|   -5.530762|   -5.530469|   -5.119268|  -12.948961|    4.115844|
|          49|  1.7030e+00|  7.5353e-11|  2.4824e-03|  1.0000e-03|  1.0000e-03|  1.0000e-03|   -4.913471|   -5.123023|   -5.530797|   -5.530504|   -5.119297|  -12.948959|    4.115722|
|          50|  1.7003e+00|  7.5353e-11|  2.4824e-03|  1.0000e-03|  1.0000e-03|  1.0000e-03|   -4.913490|   -5.123036|   -5.530832|   -5.530539|   -5.119325|  -12.948956|    4.115599|
|          51|  1.6979e+00|  7.5352e-11|  2.4824e-03|  1.0000e-03|  1.0000e-03|  1.0000e-03|   -4.913510|   -5.123049|   -5.530866|   -5.530573|   -5.119353|  -12.948954|    4.115477|
|          52|  1.6957e+00|  7.5351e-11|  2.4824e-03|  1.0000e-03|  1.0000e-03|  1.0000e-03|   -4.913529|   -5.123063|   -5.530901|   -5.530608|   -5.119382|  -12.948952|    4.115354|
|          53|  1.6933e+00|  7.5350e-11|  2.4824e-03|  1.0000e-03|  1.0000e-03|  1.0000e-03|   -4.913549|   -5.123076|   -5.530936|   -5.530643|   -5.119410|  -12.948950|    4.115231|
|          54|  1.6912e+00|  7.5349e-11|  2.4824e-03|  1.0000e-03|  1.0000e-03|  1.0000e-03|   -4.913569|   -5.123090|   -5.530971|   -5.530677|   -5.119438|  -12.948947|    4.115108|
|          55|  1.6888e+00|  7.5348e-11|  2.4824e-03|  1.0000e-03|  1.0000e-03|  1.0000e-03|   -4.913588|   -5.123103|   -5.531005|   -5.530712|   -5.119466|  -12.948945|    4.114985|
|          56|  1.6865e+00|  7.5347e-11|  2.4824e-03|  1.0000e-03|  1.0000e-03|  1.0000e-03|   -4.913608|   -5.123116|   -5.531040|   -5.530747|   -5.119494|  -12.948942|    4.114862|
|          57|  1.6844e+00|  7.5347e-11|  2.4824e-03|  1.0000e-03|  1.0000e-03|  1.0000e-03|   -4.913627|   -5.123130|   -5.531075|   -5.530781|   -5.119522|  -12.948940|    4.114739|
|          58|  1.6825e+00|  7.5346e-11|  2.4824e-03|  1.0000e-03|  1.0000e-03|  1.0000e-03|   -4.913646|   -5.123143|   -5.531109|   -5.530816|   -5.119550|  -12.948938|    4.114615|
|          59|  1.6808e+00|  7.5345e-11|  2.4824e-03|  1.0000e-03|  1.0000e-03|  1.0000e-03|   -4.913666|   -5.123157|   -5.531144|   -5.530851|   -5.119578|  -12.948935|    4.114492|
|          60|  1.6793e+00|  7.5344e-11|  2.4824e-03|  1.0000e-03|  1.0000e-03|  1.0000e-03|   -4.913685|   -5.123170|   -5.531178|   -5.530885|   -5.119606|  -12.948933|    4.114369|
|          61|  1.6776e+00|  7.5343e-11|  2.4824e-03|  1.0000e-03|  1.0000e-03|  1.0000e-03|   -4.913705|   -5.123183|   -5.531213|   -5.530920|   -5.119634|  -12.948930|    4.114245|
|          62|  1.6758e+00|  7.5342e-11|  2.4824e-03|  1.0000e-03|  1.0000e-03|  1.0000e-03|   -4.913724|   -5.123197|   -5.531248|   -5.530954|   -5.119662|  -12.948928|    4.114121|
|          63|  1.6746e+00|  7.5342e-11|  2.4824e-03|  1.0000e-03|  1.0000e-03|  1.0000e-03|   -4.913743|   -5.123210|   -5.531282|   -5.530989|   -5.119690|  -12.948925|    4.113998|
|          64|  1.6728e+00|  7.5341e-11|  2.4824e-03|  1.0000e-03|  1.0000e-03|  1.0000e-03|   -4.913762|   -5.123224|   -5.531317|   -5.531023|   -5.119718|  -12.948922|    4.113874|
|          65|  1.6715e+00|  7.5340e-11|  2.4824e-03|  1.0000e-03|  1.0000e-03|  1.0000e-03|   -4.913782|   -5.123237|   -5.531351|   -5.531058|   -5.119746|  -12.948920|    4.113750|
|          66|  1.6704e+00|  7.5339e-11|  2.4824e-03|  1.0000e-03|  1.0000e-03|  1.0000e-03|   -4.913801|   -5.123251|   -5.531386|   -5.531092|   -5.119773|  -12.948917|    4.113626|
|          67|  1.6689e+00|  7.5338e-11|  2.4824e-03|  1.0000e-03|  1.0000e-03|  1.0000e-03|   -4.913820|   -5.123264|   -5.531420|   -5.531127|   -5.119801|  -12.948915|    4.113502|
|          68|  1.6674e+00|  7.5337e-11|  2.4824e-03|  1.0000e-03|  1.0000e-03|  1.0000e-03|   -4.913839|   -5.123278|   -5.531455|   -5.531161|   -5.119829|  -12.948912|    4.113378|
|          69|  1.6665e+00|  7.5336e-11|  2.4824e-03|  1.0000e-03|  1.0000e-03|  1.0000e-03|   -4.913858|   -5.123291|   -5.531489|   -5.531196|   -5.119857|  -12.948909|    4.113254|
|          70|  1.6649e+00|  7.5336e-11|  2.4824e-03|  1.0000e-03|  1.0000e-03|  1.0000e-03|   -4.913877|   -5.123305|   -5.531523|   -5.531230|   -5.119884|  -12.948906|    4.113130|
|          71|  1.6640e+00|  7.5335e-11|  2.4824e-03|  1.0000e-03|  1.0000e-03|  1.0000e-03|   -4.913897|   -5.123318|   -5.531558|   -5.531264|   -5.119912|  -12.948904|    4.113005|
|          72|  1.6629e+00|  7.5334e-11|  2.4824e-03|  1.0000e-03|  1.0000e-03|  1.0000e-03|   -4.913916|   -5.123332|   -5.531592|   -5.531299|   -5.119939|  -12.948901|    4.112881|
|          73|  1.6618e+00|  7.5333e-11|  2.4824e-03|  1.0000e-03|  1.0000e-03|  1.0000e-03|   -4.913935|   -5.123345|   -5.531627|   -5.531333|   -5.119967|  -12.948898|    4.112756|
|          74|  1.6610e+00|  7.5332e-11|  2.4824e-03|  1.0000e-03|  1.0000e-03|  1.0000e-03|   -4.913954|   -5.123359|   -5.531661|   -5.531367|   -5.119994|  -12.948895|    4.112632|
|          75|  1.6598e+00|  7.5331e-11|  2.4824e-03|  1.0000e-03|  1.0000e-03|  1.0000e-03|   -4.913973|   -5.123372|   -5.531695|   -5.531402|   -5.120022|  -12.948892|    4.112507|
|          76|  1.6586e+00|  7.5330e-11|  2.4824e-03|  1.0000e-03|  1.0000e-03|  1.0000e-03|   -4.913992|   -5.123386|   -5.531730|   -5.531436|   -5.120049|  -12.948890|    4.112382|
|          77|  1.6574e+00|  7.5330e-11|  2.4824e-03|  1.0000e-03|  1.0000e-03|  1.0000e-03|   -4.914010|   -5.123399|   -5.531764|   -5.531470|   -5.120076|  -12.948887|    4.112258|
|          78|  1.6567e+00|  7.5329e-11|  2.4824e-03|  1.0000e-03|  1.0000e-03|  1.0000e-03|   -4.914029|   -5.123413|   -5.531798|   -5.531505|   -5.120104|  -12.948884|    4.112133|
|          79|  1.6556e+00|  7.5328e-11|  2.4824e-03|  1.0000e-03|  1.0000e-03|  1.0000e-03|   -4.914048|   -5.123426|   -5.531833|   -5.531539|   -5.120131|  -12.948881|    4.112008|
|          80|  1.6545e+00|  7.5327e-11|  2.4824e-03|  1.0000e-03|  1.0000e-03|  1.0000e-03|   -4.914067|   -5.123440|   -5.531867|   -5.531573|   -5.120158|  -12.948878|    4.111883|
|          81|  1.6534e+00|  7.5326e-11|  2.4824e-03|  1.0000e-03|  1.0000e-03|  1.0000e-03|   -4.914086|   -5.123454|   -5.531901|   -5.531607|   -5.120185|  -12.948875|    4.111758|
|          82|  1.6523e+00|  7.5325e-11|  2.4824e-03|  1.0000e-03|  1.0000e-03|  1.0000e-03|   -4.914105|   -5.123467|   -5.531936|   -5.531642|   -5.120213|  -12.948872|    4.111632|
|          83|  1.6514e+00|  7.5324e-11|  2.4824e-03|  1.0000e-03|  1.0000e-03|  1.0000e-03|   -4.914123|   -5.123481|   -5.531970|   -5.531676|   -5.120240|  -12.948869|    4.111507|
|          84|  1.6506e+00|  7.5324e-11|  2.4824e-03|  1.0000e-03|  1.0000e-03|  1.0000e-03|   -4.914142|   -5.123494|   -5.532004|   -5.531710|   -5.120267|  -12.948866|    4.111382|
|          85|  1.6496e+00|  7.5323e-11|  2.4824e-03|  1.0000e-03|  1.0000e-03|  1.0000e-03|   -4.914161|   -5.123508|   -5.532038|   -5.531744|   -5.120294|  -12.948863|    4.111256|
|          86|  1.6489e+00|  7.5322e-11|  2.4824e-03|  1.0000e-03|  1.0000e-03|  1.0000e-03|   -4.914180|   -5.123522|   -5.532072|   -5.531778|   -5.120321|  -12.948859|    4.111131|
|          87|  1.6481e+00|  7.5321e-11|  2.4824e-03|  1.0000e-03|  1.0000e-03|  1.0000e-03|   -4.914198|   -5.123535|   -5.532107|   -5.531813|   -5.120348|  -12.948856|    4.111005|
|          88|  1.6474e+00|  7.5320e-11|  2.4824e-03|  1.0000e-03|  1.0000e-03|  1.0000e-03|   -4.914217|   -5.123549|   -5.532141|   -5.531847|   -5.120375|  -12.948853|    4.110879|
|          89|  1.6465e+00|  7.5319e-11|  2.4824e-03|  1.0000e-03|  1.0000e-03|  1.0000e-03|   -4.914235|   -5.123563|   -5.532175|   -5.531881|   -5.120402|  -12.948850|    4.110754|
|          90|  1.6463e+00|  7.5319e-11|  2.4824e-03|  1.0000e-03|  1.0000e-03|  1.0000e-03|   -4.914254|   -5.123576|   -5.532209|   -5.531915|   -5.120429|  -12.948847|    4.110628|
|          91|  1.6458e+00|  7.5318e-11|  2.4824e-03|  1.0000e-03|  1.0000e-03|  1.0000e-03|   -4.914273|   -5.123590|   -5.532243|   -5.531949|   -5.120455|  -12.948843|    4.110502|
|          92|  1.6452e+00|  7.5317e-11|  2.4824e-03|  1.0000e-03|  1.0000e-03|  1.0000e-03|   -4.914291|   -5.123604|   -5.532277|   -5.531983|   -5.120482|  -12.948840|    4.110376|
|          93|  1.6454e+00|  7.5316e-11|  2.4824e-03|  1.0000e-03|  1.0000e-03|  1.0000e-03|   -4.914310|   -5.123617|   -5.532311|   -5.532017|   -5.120509|  -12.948837|    4.110250|
|          94|  1.6453e+00|  7.5315e-11|  2.4824e-03|  1.0000e-03|  1.0000e-03|  1.0000e-03|   -4.914328|   -5.123631|   -5.532345|   -5.532051|   -5.120536|  -12.948834|    4.110124|
|          95|  1.6449e+00|  7.5314e-11|  2.4824e-03|  1.0000e-03|  1.0000e-03|  1.0000e-03|   -4.914347|   -5.123645|   -5.532379|   -5.532085|   -5.120562|  -12.948830|    4.109997|
|          96|  1.6443e+00|  7.5313e-11|  2.4824e-03|  1.0000e-03|  1.0000e-03|  1.0000e-03|   -4.914365|   -5.123658|   -5.532413|   -5.532119|   -5.120589|  -12.948827|    4.109871|
|          97|  1.6435e+00|  7.5313e-11|  2.4824e-03|  1.0000e-03|  1.0000e-03|  1.0000e-03|   -4.914383|   -5.123672|   -5.532447|   -5.532153|   -5.120616|  -12.948823|    4.109745|
|          98|  1.6429e+00|  7.5312e-11|  2.4824e-03|  1.0000e-03|  1.0000e-03|  1.0000e-03|   -4.914402|   -5.123686|   -5.532481|   -5.532187|   -5.120642|  -12.948820|    4.109618|
|          99|  1.6422e+00|  7.5311e-11|  2.4824e-03|  1.0000e-03|  1.0000e-03|  1.0000e-03|   -4.914420|   -5.123700|   -5.532515|   -5.532221|   -5.120669|  -12.948817|    4.109492|
|         100|  1.6417e+00|  7.5310e-11|  2.4824e-03|  1.0000e-03|  1.0000e-03|  1.0000e-03|   -4.914438|   -5.123713|   -5.532549|   -5.532255|   -5.120695|  -12.948813|    4.109365|
|         101|  1.6411e+00|  7.5309e-11|  2.4824e-03|  1.0000e-03|  1.0000e-03|  1.0000e-03|   -4.914457|   -5.123727|   -5.532583|   -5.532289|   -5.120722|  -12.948810|    4.109238|
|         102|  1.6407e+00|  7.5308e-11|  2.4824e-03|  1.0000e-03|  1.0000e-03|  1.0000e-03|   -4.914475|   -5.123741|   -5.532617|   -5.532323|   -5.120748|  -12.948806|    4.109111|
|         103|  1.6400e+00|  7.5307e-11|  2.4824e-03|  1.0000e-03|  1.0000e-03|  1.0000e-03|   -4.914493|   -5.123755|   -5.532651|   -5.532357|   -5.120775|  -12.948803|    4.108985|
|         104|  1.6393e+00|  7.5307e-11|  2.4824e-03|  1.0000e-03|  1.0000e-03|  1.0000e-03|   -4.914511|   -5.123768|   -5.532685|   -5.532391|   -5.120801|  -12.948799|    4.108858|
|         105|  1.6386e+00|  7.5306e-11|  2.4824e-03|  1.0000e-03|  1.0000e-03|  1.0000e-03|   -4.914529|   -5.123782|   -5.532719|   -5.532424|   -5.120827|  -12.948795|    4.108730|
|         106|  1.6382e+00|  7.5305e-11|  2.4824e-03|  1.0000e-03|  1.0000e-03|  1.0000e-03|   -4.914548|   -5.123796|   -5.532753|   -5.532458|   -5.120854|  -12.948792|    4.108603|
|         107|  1.6377e+00|  7.5304e-11|  2.4824e-03|  1.0000e-03|  1.0000e-03|  1.0000e-03|   -4.914566|   -5.123810|   -5.532787|   -5.532492|   -5.120880|  -12.948788|    4.108476|
|         108|  1.6372e+00|  7.5303e-11|  2.4824e-03|  1.0000e-03|  1.0000e-03|  1.0000e-03|   -4.914584|   -5.123824|   -5.532820|   -5.532526|   -5.120906|  -12.948784|    4.108349|
|         109|  1.6367e+00|  7.5302e-11|  2.4824e-03|  1.0000e-03|  1.0000e-03|  1.0000e-03|   -4.914602|   -5.123837|   -5.532854|   -5.532560|   -5.120932|  -12.948781|    4.108221|
|         110|  1.6361e+00|  7.5302e-11|  2.4824e-03|  1.0000e-03|  1.0000e-03|  1.0000e-03|   -4.914620|   -5.123851|   -5.532888|   -5.532593|   -5.120958|  -12.948777|    4.108094|
|         111|  1.6355e+00|  7.5301e-11|  2.4824e-03|  1.0000e-03|  1.0000e-03|  1.0000e-03|   -4.914638|   -5.123865|   -5.532922|   -5.532627|   -5.120984|  -12.948773|    4.107967|
|         112|  1.6350e+00|  7.5300e-11|  2.4824e-03|  1.0000e-03|  1.0000e-03|  1.0000e-03|   -4.914656|   -5.123879|   -5.532956|   -5.532661|   -5.121010|  -12.948770|    4.107839|
|         113|  1.6345e+00|  7.5299e-11|  2.4824e-03|  1.0000e-03|  1.0000e-03|  1.0000e-03|   -4.914674|   -5.123893|   -5.532989|   -5.532695|   -5.121036|  -12.948766|    4.107711|
|         114|  1.6340e+00|  7.5298e-11|  2.4824e-03|  1.0000e-03|  1.0000e-03|  1.0000e-03|   -4.914692|   -5.123907|   -5.533023|   -5.532728|   -5.121062|  -12.948762|    4.107583|
|         115|  1.6336e+00|  7.5297e-11|  2.4824e-03|  1.0000e-03|  1.0000e-03|  1.0000e-03|   -4.914710|   -5.123920|   -5.533057|   -5.532762|   -5.121088|  -12.948758|    4.107456|
|         116|  1.6333e+00|  7.5296e-11|  2.4824e-03|  1.0000e-03|  1.0000e-03|  1.0000e-03|   -4.914728|   -5.123934|   -5.533091|   -5.532796|   -5.121114|  -12.948754|    4.107328|
|         117|  1.6330e+00|  7.5296e-11|  2.4824e-03|  1.0000e-03|  1.0000e-03|  1.0000e-03|   -4.914745|   -5.123948|   -5.533124|   -5.532829|   -5.121140|  -12.948750|    4.107200|
|         118|  1.6325e+00|  7.5295e-11|  2.4824e-03|  1.0000e-03|  1.0000e-03|  1.0000e-03|   -4.914763|   -5.123962|   -5.533158|   -5.532863|   -5.121166|  -12.948747|    4.107072|
|         119|  1.6321e+00|  7.5294e-11|  2.4824e-03|  1.0000e-03|  1.0000e-03|  1.0000e-03|   -4.914781|   -5.123976|   -5.533192|   -5.532897|   -5.121192|  -12.948743|    4.106943|
|         120|  1.6316e+00|  7.5293e-11|  2.4824e-03|  1.0000e-03|  1.0000e-03|  1.0000e-03|   -4.914799|   -5.123990|   -5.533225|   -5.532930|   -5.121218|  -12.948739|    4.106815|
|         121|  1.6311e+00|  7.5292e-11|  2.4824e-03|  1.0000e-03|  1.0000e-03|  1.0000e-03|   -4.914817|   -5.124004|   -5.533259|   -5.532964|   -5.121243|  -12.948735|    4.106687|
|         122|  1.6306e+00|  7.5291e-11|  2.4824e-03|  1.0000e-03|  1.0000e-03|  1.0000e-03|   -4.914834|   -5.124018|   -5.533292|   -5.532998|   -5.121269|  -12.948731|    4.106559|
|         123|  1.6300e+00|  7.5290e-11|  2.4824e-03|  1.0000e-03|  1.0000e-03|  1.0000e-03|   -4.914852|   -5.124032|   -5.533326|   -5.533031|   -5.121295|  -12.948727|    4.106430|
|         124|  1.6296e+00|  7.5290e-11|  2.4824e-03|  1.0000e-03|  1.0000e-03|  1.0000e-03|   -4.914870|   -5.124046|   -5.533360|   -5.533065|   -5.121320|  -12.948723|    4.106301|
|         125|  1.6293e+00|  7.5289e-11|  2.4824e-03|  1.0000e-03|  1.0000e-03|  1.0000e-03|   -4.914887|   -5.124060|   -5.533393|   -5.533098|   -5.121346|  -12.948719|    4.106173|
|         126|  1.6288e+00|  7.5288e-11|  2.4824e-03|  1.0000e-03|  1.0000e-03|  1.0000e-03|   -4.914905|   -5.124073|   -5.533427|   -5.533132|   -5.121371|  -12.948714|    4.106044|
|         127|  1.6285e+00|  7.5287e-11|  2.4824e-03|  1.0000e-03|  1.0000e-03|  1.0000e-03|   -4.914922|   -5.124087|   -5.533460|   -5.533165|   -5.121397|  -12.948710|    4.105915|
|         128|  1.6280e+00|  7.5286e-11|  2.4824e-03|  1.0000e-03|  1.0000e-03|  1.0000e-03|   -4.914940|   -5.124101|   -5.533494|   -5.533199|   -5.121422|  -12.948706|    4.105786|
|         129|  1.6276e+00|  7.5285e-11|  2.4824e-03|  1.0000e-03|  1.0000e-03|  1.0000e-03|   -4.914957|   -5.124115|   -5.533527|   -5.533232|   -5.121448|  -12.948702|    4.105658|
|         130|  1.6271e+00|  7.5285e-11|  2.4824e-03|  1.0000e-03|  1.0000e-03|  1.0000e-03|   -4.914975|   -5.124129|   -5.533561|   -5.533266|   -5.121473|  -12.948698|    4.105528|
|         131|  1.6267e+00|  7.5284e-11|  2.4824e-03|  1.0000e-03|  1.0000e-03|  1.0000e-03|   -4.914992|   -5.124143|   -5.533594|   -5.533299|   -5.121499|  -12.948694|    4.105399|
|         132|  1.6264e+00|  7.5283e-11|  2.4824e-03|  1.0000e-03|  1.0000e-03|  1.0000e-03|   -4.915010|   -5.124157|   -5.533628|   -5.533332|   -5.121524|  -12.948689|    4.105270|
|         133|  1.6260e+00|  7.5282e-11|  2.4824e-03|  1.0000e-03|  1.0000e-03|  1.0000e-03|   -4.915027|   -5.124171|   -5.533661|   -5.533366|   -5.121549|  -12.948685|    4.105141|
|         134|  1.6257e+00|  7.5281e-11|  2.4824e-03|  1.0000e-03|  1.0000e-03|  1.0000e-03|   -4.915045|   -5.124185|   -5.533694|   -5.533399|   -5.121574|  -12.948681|    4.105012|
|         135|  1.6253e+00|  7.5280e-11|  2.4824e-03|  1.0000e-03|  1.0000e-03|  1.0000e-03|   -4.915062|   -5.124199|   -5.533728|   -5.533433|   -5.121600|  -12.948677|    4.104882|
|         136|  1.6252e+00|  7.5279e-11|  2.4824e-03|  1.0000e-03|  1.0000e-03|  1.0000e-03|   -4.915079|   -5.124213|   -5.533761|   -5.533466|   -5.121625|  -12.948672|    4.104753|
|         137|  1.6247e+00|  7.5279e-11|  2.4824e-03|  1.0000e-03|  1.0000e-03|  1.0000e-03|   -4.915097|   -5.124228|   -5.533795|   -5.533499|   -5.121650|  -12.948668|    4.104623|
|         138|  1.6244e+00|  7.5278e-11|  2.4824e-03|  1.0000e-03|  1.0000e-03|  1.0000e-03|   -4.915114|   -5.124242|   -5.533828|   -5.533533|   -5.121675|  -12.948663|    4.104493|
|         139|  1.6244e+00|  7.5277e-11|  2.4824e-03|  1.0000e-03|  1.0000e-03|  1.0000e-03|   -4.915131|   -5.124256|   -5.533861|   -5.533566|   -5.121700|  -12.948659|    4.104364|
|         140|  1.6240e+00|  7.5276e-11|  2.4824e-03|  1.0000e-03|  1.0000e-03|  1.0000e-03|   -4.915148|   -5.124270|   -5.533895|   -5.533599|   -5.121725|  -12.948655|    4.104234|
|         141|  1.6236e+00|  7.5275e-11|  2.4824e-03|  1.0000e-03|  1.0000e-03|  1.0000e-03|   -4.915166|   -5.124284|   -5.533928|   -5.533632|   -5.121750|  -12.948650|    4.104104|
|         142|  1.6233e+00|  7.5274e-11|  2.4824e-03|  1.0000e-03|  1.0000e-03|  1.0000e-03|   -4.915183|   -5.124298|   -5.533961|   -5.533666|   -5.121775|  -12.948646|    4.103974|
|         143|  1.6230e+00|  7.5274e-11|  2.4824e-03|  1.0000e-03|  1.0000e-03|  1.0000e-03|   -4.915200|   -5.124312|   -5.533994|   -5.533699|   -5.121800|  -12.948641|    4.103844|
|         144|  1.6229e+00|  7.5273e-11|  2.4824e-03|  1.0000e-03|  1.0000e-03|  1.0000e-03|   -4.915217|   -5.124326|   -5.534028|   -5.533732|   -5.121825|  -12.948637|    4.103714|
|         145|  1.6226e+00|  7.5272e-11|  2.4824e-03|  1.0000e-03|  1.0000e-03|  1.0000e-03|   -4.915234|   -5.124340|   -5.534061|   -5.533765|   -5.121850|  -12.948632|    4.103584|
|         146|  1.6222e+00|  7.5271e-11|  2.4824e-03|  1.0000e-03|  1.0000e-03|  1.0000e-03|   -4.915251|   -5.124354|   -5.534094|   -5.533798|   -5.121874|  -12.948628|    4.103453|
|         147|  1.6220e+00|  7.5270e-11|  2.4824e-03|  1.0000e-03|  1.0000e-03|  1.0000e-03|   -4.915268|   -5.124368|   -5.534127|   -5.533832|   -5.121899|  -12.948623|    4.103323|
|         148|  1.6220e+00|  7.5269e-11|  2.4824e-03|  1.0000e-03|  1.0000e-03|  1.0000e-03|   -4.915285|   -5.124382|   -5.534160|   -5.533865|   -5.121924|  -12.948618|    4.103192|
|         149|  1.6217e+00|  7.5268e-11|  2.4824e-03|  1.0000e-03|  1.0000e-03|  1.0000e-03|   -4.915302|   -5.124397|   -5.534194|   -5.533898|   -5.121948|  -12.948614|    4.103062|
|         150|  1.6213e+00|  7.5268e-11|  2.4824e-03|  1.0000e-03|  1.0000e-03|  1.0000e-03|   -4.915319|   -5.124411|   -5.534227|   -5.533931|   -5.121973|  -12.948609|    4.102931|
+-----------------------------------------------------------------------+
|        File Writing Summary       |              Filename             |
+-----------------------------------------------------------------------+
|SU2 binary restart                 |restart_flow.dat                   |
|Paraview                           |flow.vtu                           |
|Paraview surface                   |surface_flow.vtu                   |
+-----------------------------------------------------------------------+
+-------------------------------------------------------------------------------------------------------------------------------------------------------------------------------------+
|  Inner_Iter|   Time(sec)|      Min DT|      Max DT|     Min CFL|     Max CFL|     Avg CFL|    rms[Rho]|   rms[RhoU]|   rms[RhoV]|   rms[RhoW]|   rms[RhoE]|     rms[nu]|          CD|
+-------------------------------------------------------------------------------------------------------------------------------------------------------------------------------------+
|         151|  1.7070e+00|  7.5267e-11|  2.4824e-03|  1.0000e-03|  1.0000e-03|  1.0000e-03|   -4.915336|   -5.124425|   -5.534260|   -5.533964|   -5.121998|  -12.948604|    4.102801|
|         152|  1.7067e+00|  7.5266e-11|  2.4824e-03|  1.0000e-03|  1.0000e-03|  1.0000e-03|   -4.915353|   -5.124439|   -5.534293|   -5.533997|   -5.122022|  -12.948600|    4.102670|
|         153|  1.7065e+00|  7.5265e-11|  2.4824e-03|  1.0000e-03|  1.0000e-03|  1.0000e-03|   -4.915370|   -5.124453|   -5.534326|   -5.534030|   -5.122047|  -12.948595|    4.102539|
|         154|  1.7061e+00|  7.5264e-11|  2.4824e-03|  1.0000e-03|  1.0000e-03|  1.0000e-03|   -4.915387|   -5.124467|   -5.534359|   -5.534063|   -5.122071|  -12.948590|    4.102408|
|         155|  1.7056e+00|  7.5263e-11|  2.4824e-03|  1.0000e-03|  1.0000e-03|  1.0000e-03|   -4.915403|   -5.124482|   -5.534392|   -5.534096|   -5.122096|  -12.948585|    4.102277|
|         156|  1.7050e+00|  7.5262e-11|  2.4824e-03|  1.0000e-03|  1.0000e-03|  1.0000e-03|   -4.915420|   -5.124496|   -5.534425|   -5.534129|   -5.122120|  -12.948581|    4.102146|
|         157|  1.7045e+00|  7.5262e-11|  2.4824e-03|  1.0000e-03|  1.0000e-03|  1.0000e-03|   -4.915437|   -5.124510|   -5.534458|   -5.534162|   -5.122144|  -12.948576|    4.102015|
|         158|  1.7039e+00|  7.5261e-11|  2.4824e-03|  1.0000e-03|  1.0000e-03|  1.0000e-03|   -4.915454|   -5.124524|   -5.534491|   -5.534195|   -5.122169|  -12.948571|    4.101884|
|         159|  1.7032e+00|  7.5260e-11|  2.4824e-03|  1.0000e-03|  1.0000e-03|  1.0000e-03|   -4.915470|   -5.124538|   -5.534524|   -5.534228|   -5.122193|  -12.948566|    4.101752|
|         160|  1.7028e+00|  7.5259e-11|  2.4824e-03|  1.0000e-03|  1.0000e-03|  1.0000e-03|   -4.915487|   -5.124553|   -5.534557|   -5.534261|   -5.122217|  -12.948561|    4.101621|
|         161|  1.7021e+00|  7.5258e-11|  2.4824e-03|  1.0000e-03|  1.0000e-03|  1.0000e-03|   -4.915504|   -5.124567|   -5.534590|   -5.534294|   -5.122242|  -12.948556|    4.101490|
|         162|  1.7020e+00|  7.5257e-11|  2.4824e-03|  1.0000e-03|  1.0000e-03|  1.0000e-03|   -4.915520|   -5.124581|   -5.534623|   -5.534327|   -5.122266|  -12.948551|    4.101358|
|         163|  1.7015e+00|  7.5257e-11|  2.4824e-03|  1.0000e-03|  1.0000e-03|  1.0000e-03|   -4.915537|   -5.124595|   -5.534656|   -5.534360|   -5.122290|  -12.948546|    4.101226|
|         164|  1.7010e+00|  7.5256e-11|  2.4824e-03|  1.0000e-03|  1.0000e-03|  1.0000e-03|   -4.915553|   -5.124610|   -5.534689|   -5.534393|   -5.122314|  -12.948541|    4.101095|
|         165|  1.7002e+00|  7.5255e-11|  2.4824e-03|  1.0000e-03|  1.0000e-03|  1.0000e-03|   -4.915570|   -5.124624|   -5.534722|   -5.534426|   -5.122338|  -12.948536|    4.100963|
|         166|  1.6995e+00|  7.5254e-11|  2.4824e-03|  1.0000e-03|  1.0000e-03|  1.0000e-03|   -4.915586|   -5.124638|   -5.534755|   -5.534458|   -5.122362|  -12.948531|    4.100831|
|         167|  1.6988e+00|  7.5253e-11|  2.4824e-03|  1.0000e-03|  1.0000e-03|  1.0000e-03|   -4.915603|   -5.124652|   -5.534788|   -5.534491|   -5.122386|  -12.948526|    4.100699|
|         168|  1.6986e+00|  7.5252e-11|  2.4824e-03|  1.0000e-03|  1.0000e-03|  1.0000e-03|   -4.915619|   -5.124667|   -5.534820|   -5.534524|   -5.122410|  -12.948521|    4.100567|
|         169|  1.6980e+00|  7.5251e-11|  2.4824e-03|  1.0000e-03|  1.0000e-03|  1.0000e-03|   -4.915636|   -5.124681|   -5.534853|   -5.534557|   -5.122434|  -12.948516|    4.100435|
|         170|  1.6975e+00|  7.5251e-11|  2.4824e-03|  1.0000e-03|  1.0000e-03|  1.0000e-03|   -4.915652|   -5.124695|   -5.534886|   -5.534590|   -5.122458|  -12.948511|    4.100303|
|         171|  1.6968e+00|  7.5250e-11|  2.4824e-03|  1.0000e-03|  1.0000e-03|  1.0000e-03|   -4.915669|   -5.124710|   -5.534919|   -5.534622|   -5.122482|  -12.948506|    4.100171|
|         172|  1.6961e+00|  7.5249e-11|  2.4824e-03|  1.0000e-03|  1.0000e-03|  1.0000e-03|   -4.915685|   -5.124724|   -5.534952|   -5.534655|   -5.122505|  -12.948501|    4.100038|
|         173|  1.6956e+00|  7.5248e-11|  2.4824e-03|  1.0000e-03|  1.0000e-03|  1.0000e-03|   -4.915701|   -5.124738|   -5.534984|   -5.534688|   -5.122529|  -12.948495|    4.099906|
|         174|  1.6950e+00|  7.5247e-11|  2.4824e-03|  1.0000e-03|  1.0000e-03|  1.0000e-03|   -4.915717|   -5.124753|   -5.535017|   -5.534721|   -5.122553|  -12.948490|    4.099773|
|         175|  1.6944e+00|  7.5246e-11|  2.4824e-03|  1.0000e-03|  1.0000e-03|  1.0000e-03|   -4.915734|   -5.124767|   -5.535050|   -5.534753|   -5.122577|  -12.948485|    4.099641|
|         176|  1.6936e+00|  7.5246e-11|  2.4824e-03|  1.0000e-03|  1.0000e-03|  1.0000e-03|   -4.915750|   -5.124781|   -5.535082|   -5.534786|   -5.122600|  -12.948480|    4.099508|
|         177|  1.6930e+00|  7.5245e-11|  2.4824e-03|  1.0000e-03|  1.0000e-03|  1.0000e-03|   -4.915766|   -5.124796|   -5.535115|   -5.534818|   -5.122624|  -12.948474|    4.099376|
|         178|  1.6924e+00|  7.5244e-11|  2.4824e-03|  1.0000e-03|  1.0000e-03|  1.0000e-03|   -4.915782|   -5.124810|   -5.535148|   -5.534851|   -5.122647|  -12.948469|    4.099243|
|         179|  1.6917e+00|  7.5243e-11|  2.4824e-03|  1.0000e-03|  1.0000e-03|  1.0000e-03|   -4.915798|   -5.124824|   -5.535180|   -5.534884|   -5.122671|  -12.948464|    4.099110|
|         180|  1.6913e+00|  7.5242e-11|  2.4824e-03|  1.0000e-03|  1.0000e-03|  1.0000e-03|   -4.915815|   -5.124839|   -5.535213|   -5.534916|   -5.122695|  -12.948458|    4.098977|
|         181|  1.6908e+00|  7.5241e-11|  2.4824e-03|  1.0000e-03|  1.0000e-03|  1.0000e-03|   -4.915831|   -5.124853|   -5.535246|   -5.534949|   -5.122718|  -12.948453|    4.098844|
|         182|  1.6903e+00|  7.5240e-11|  2.4824e-03|  1.0000e-03|  1.0000e-03|  1.0000e-03|   -4.915847|   -5.124867|   -5.535278|   -5.534981|   -5.122741|  -12.948447|    4.098711|
|         183|  1.6899e+00|  7.5240e-11|  2.4824e-03|  1.0000e-03|  1.0000e-03|  1.0000e-03|   -4.915863|   -5.124882|   -5.535311|   -5.535014|   -5.122765|  -12.948442|    4.098578|
|         184|  1.6894e+00|  7.5239e-11|  2.4824e-03|  1.0000e-03|  1.0000e-03|  1.0000e-03|   -4.915879|   -5.124896|   -5.535343|   -5.535047|   -5.122788|  -12.948437|    4.098444|
|         185|  1.6890e+00|  7.5238e-11|  2.4824e-03|  1.0000e-03|  1.0000e-03|  1.0000e-03|   -4.915895|   -5.124911|   -5.535376|   -5.535079|   -5.122811|  -12.948431|    4.098311|
|         186|  1.6882e+00|  7.5237e-11|  2.4824e-03|  1.0000e-03|  1.0000e-03|  1.0000e-03|   -4.915911|   -5.124925|   -5.535408|   -5.535112|   -5.122835|  -12.948426|    4.098178|
|         187|  1.6877e+00|  7.5236e-11|  2.4824e-03|  1.0000e-03|  1.0000e-03|  1.0000e-03|   -4.915927|   -5.124939|   -5.535441|   -5.535144|   -5.122858|  -12.948420|    4.098044|
|         188|  1.6872e+00|  7.5235e-11|  2.4824e-03|  1.0000e-03|  1.0000e-03|  1.0000e-03|   -4.915942|   -5.124954|   -5.535473|   -5.535176|   -5.122881|  -12.948415|    4.097911|
|         189|  1.6867e+00|  7.5234e-11|  2.4824e-03|  1.0000e-03|  1.0000e-03|  1.0000e-03|   -4.915958|   -5.124968|   -5.535506|   -5.535209|   -5.122904|  -12.948409|    4.097777|
|         190|  1.6863e+00|  7.5234e-11|  2.4824e-03|  1.0000e-03|  1.0000e-03|  1.0000e-03|   -4.915974|   -5.124983|   -5.535538|   -5.535241|   -5.122927|  -12.948403|    4.097643|
|         191|  1.6859e+00|  7.5233e-11|  2.4824e-03|  1.0000e-03|  1.0000e-03|  1.0000e-03|   -4.915990|   -5.124997|   -5.535571|   -5.535274|   -5.122950|  -12.948398|    4.097510|
|         192|  1.6852e+00|  7.5232e-11|  2.4824e-03|  1.0000e-03|  1.0000e-03|  1.0000e-03|   -4.916006|   -5.125012|   -5.535603|   -5.535306|   -5.122973|  -12.948392|    4.097376|
|         193|  1.6846e+00|  7.5231e-11|  2.4824e-03|  1.0000e-03|  1.0000e-03|  1.0000e-03|   -4.916022|   -5.125026|   -5.535636|   -5.535338|   -5.122996|  -12.948386|    4.097242|
|         194|  1.6842e+00|  7.5230e-11|  2.4824e-03|  1.0000e-03|  1.0000e-03|  1.0000e-03|   -4.916037|   -5.125041|   -5.535668|   -5.535371|   -5.123019|  -12.948381|    4.097108|
|         195|  1.6836e+00|  7.5229e-11|  2.4824e-03|  1.0000e-03|  1.0000e-03|  1.0000e-03|   -4.916053|   -5.125055|   -5.535700|   -5.535403|   -5.123042|  -12.948375|    4.096974|
|         196|  1.6830e+00|  7.5229e-11|  2.4824e-03|  1.0000e-03|  1.0000e-03|  1.0000e-03|   -4.916069|   -5.125070|   -5.535733|   -5.535435|   -5.123065|  -12.948369|    4.096839|
|         197|  1.6824e+00|  7.5228e-11|  2.4824e-03|  1.0000e-03|  1.0000e-03|  1.0000e-03|   -4.916084|   -5.125084|   -5.535765|   -5.535468|   -5.123088|  -12.948364|    4.096705|
|         198|  1.6820e+00|  7.5227e-11|  2.4824e-03|  1.0000e-03|  1.0000e-03|  1.0000e-03|   -4.916100|   -5.125099|   -5.535797|   -5.535500|   -5.123111|  -12.948358|    4.096571|
|         199|  1.6814e+00|  7.5226e-11|  2.4824e-03|  1.0000e-03|  1.0000e-03|  1.0000e-03|   -4.916115|   -5.125113|   -5.535830|   -5.535532|   -5.123134|  -12.948352|    4.096436|
|         200|  1.6809e+00|  7.5225e-11|  2.4824e-03|  1.0000e-03|  1.0000e-03|  1.0000e-03|   -4.916131|   -5.125128|   -5.535862|   -5.535565|   -5.123156|  -12.948346|    4.096302|
|         201|  1.6805e+00|  7.5224e-11|  2.4824e-03|  1.0000e-03|  1.0000e-03|  1.0000e-03|   -4.916147|   -5.125142|   -5.535894|   -5.535597|   -5.123179|  -12.948340|    4.096167|
|         202|  1.6801e+00|  7.5223e-11|  2.4824e-03|  1.0000e-03|  1.0000e-03|  1.0000e-03|   -4.916162|   -5.125157|   -5.535926|   -5.535629|   -5.123202|  -12.948334|    4.096033|
|         203|  1.6797e+00|  7.5223e-11|  2.4824e-03|  1.0000e-03|  1.0000e-03|  1.0000e-03|   -4.916178|   -5.125171|   -5.535958|   -5.535661|   -5.123224|  -12.948329|    4.095898|
|         204|  1.6791e+00|  7.5222e-11|  2.4824e-03|  1.0000e-03|  1.0000e-03|  1.0000e-03|   -4.916193|   -5.125186|   -5.535991|   -5.535693|   -5.123247|  -12.948323|    4.095763|
|         205|  1.6786e+00|  7.5221e-11|  2.4824e-03|  1.0000e-03|  1.0000e-03|  1.0000e-03|   -4.916208|   -5.125201|   -5.536023|   -5.535726|   -5.123269|  -12.948317|    4.095628|
|         206|  1.6782e+00|  7.5220e-11|  2.4824e-03|  1.0000e-03|  1.0000e-03|  1.0000e-03|   -4.916224|   -5.125215|   -5.536055|   -5.535758|   -5.123292|  -12.948311|    4.095493|
|         207|  1.6779e+00|  7.5219e-11|  2.4824e-03|  1.0000e-03|  1.0000e-03|  1.0000e-03|   -4.916239|   -5.125230|   -5.536087|   -5.535790|   -5.123314|  -12.948305|    4.095358|
|         208|  1.6773e+00|  7.5218e-11|  2.4824e-03|  1.0000e-03|  1.0000e-03|  1.0000e-03|   -4.916254|   -5.125244|   -5.536119|   -5.535822|   -5.123337|  -12.948299|    4.095223|
|         209|  1.6768e+00|  7.5218e-11|  2.4824e-03|  1.0000e-03|  1.0000e-03|  1.0000e-03|   -4.916270|   -5.125259|   -5.536151|   -5.535854|   -5.123359|  -12.948293|    4.095088|
|         210|  1.6762e+00|  7.5217e-11|  2.4824e-03|  1.0000e-03|  1.0000e-03|  1.0000e-03|   -4.916285|   -5.125273|   -5.536184|   -5.535886|   -5.123382|  -12.948287|    4.094953|
|         211|  1.6757e+00|  7.5216e-11|  2.4824e-03|  1.0000e-03|  1.0000e-03|  1.0000e-03|   -4.916300|   -5.125288|   -5.536216|   -5.535918|   -5.123404|  -12.948281|    4.094817|
|         212|  1.6752e+00|  7.5215e-11|  2.4824e-03|  1.0000e-03|  1.0000e-03|  1.0000e-03|   -4.916316|   -5.125303|   -5.536248|   -5.535950|   -5.123426|  -12.948274|    4.094682|
|         213|  1.6746e+00|  7.5214e-11|  2.4824e-03|  1.0000e-03|  1.0000e-03|  1.0000e-03|   -4.916331|   -5.125317|   -5.536280|   -5.535982|   -5.123448|  -12.948268|    4.094547|
|         214|  1.6741e+00|  7.5213e-11|  2.4824e-03|  1.0000e-03|  1.0000e-03|  1.0000e-03|   -4.916346|   -5.125332|   -5.536312|   -5.536014|   -5.123471|  -12.948262|    4.094411|
|         215|  1.6738e+00|  7.5212e-11|  2.4824e-03|  1.0000e-03|  1.0000e-03|  1.0000e-03|   -4.916361|   -5.125347|   -5.536344|   -5.536046|   -5.123493|  -12.948256|    4.094275|
|         216|  1.6733e+00|  7.5212e-11|  2.4824e-03|  1.0000e-03|  1.0000e-03|  1.0000e-03|   -4.916376|   -5.125361|   -5.536376|   -5.536078|   -5.123515|  -12.948250|    4.094140|
|         217|  1.6729e+00|  7.5211e-11|  2.4824e-03|  1.0000e-03|  1.0000e-03|  1.0000e-03|   -4.916391|   -5.125376|   -5.536408|   -5.536110|   -5.123537|  -12.948244|    4.094004|
|         218|  1.6724e+00|  7.5210e-11|  2.4824e-03|  1.0000e-03|  1.0000e-03|  1.0000e-03|   -4.916406|   -5.125391|   -5.536440|   -5.536142|   -5.123559|  -12.948237|    4.093868|
|         219|  1.6719e+00|  7.5209e-11|  2.4824e-03|  1.0000e-03|  1.0000e-03|  1.0000e-03|   -4.916421|   -5.125405|   -5.536472|   -5.536174|   -5.123581|  -12.948231|    4.093732|
|         220|  1.6714e+00|  7.5208e-11|  2.4824e-03|  1.0000e-03|  1.0000e-03|  1.0000e-03|   -4.916436|   -5.125420|   -5.536503|   -5.536206|   -5.123603|  -12.948225|    4.093596|
|         221|  1.6712e+00|  7.5207e-11|  2.4824e-03|  1.0000e-03|  1.0000e-03|  1.0000e-03|   -4.916451|   -5.125435|   -5.536535|   -5.536238|   -5.123625|  -12.948219|    4.093460|
|         222|  1.6707e+00|  7.5207e-11|  2.4824e-03|  1.0000e-03|  1.0000e-03|  1.0000e-03|   -4.916466|   -5.125449|   -5.536567|   -5.536269|   -5.123647|  -12.948212|    4.093324|
|         223|  1.6702e+00|  7.5206e-11|  2.4824e-03|  1.0000e-03|  1.0000e-03|  1.0000e-03|   -4.916481|   -5.125464|   -5.536599|   -5.536301|   -5.123668|  -12.948206|    4.093187|
|         224|  1.6698e+00|  7.5205e-11|  2.4824e-03|  1.0000e-03|  1.0000e-03|  1.0000e-03|   -4.916496|   -5.125479|   -5.536631|   -5.536333|   -5.123690|  -12.948200|    4.093051|
|         225|  1.6695e+00|  7.5204e-11|  2.4824e-03|  1.0000e-03|  1.0000e-03|  1.0000e-03|   -4.916511|   -5.125493|   -5.536663|   -5.536365|   -5.123712|  -12.948193|    4.092915|
|         226|  1.6691e+00|  7.5203e-11|  2.4824e-03|  1.0000e-03|  1.0000e-03|  1.0000e-03|   -4.916526|   -5.125508|   -5.536695|   -5.536397|   -5.123734|  -12.948187|    4.092778|
|         227|  1.6688e+00|  7.5202e-11|  2.4824e-03|  1.0000e-03|  1.0000e-03|  1.0000e-03|   -4.916540|   -5.125523|   -5.536726|   -5.536428|   -5.123755|  -12.948180|    4.092642|
|         228|  1.6684e+00|  7.5201e-11|  2.4824e-03|  1.0000e-03|  1.0000e-03|  1.0000e-03|   -4.916555|   -5.125538|   -5.536758|   -5.536460|   -5.123777|  -12.948174|    4.092505|
|         229|  1.6681e+00|  7.5201e-11|  2.4824e-03|  1.0000e-03|  1.0000e-03|  1.0000e-03|   -4.916570|   -5.125552|   -5.536790|   -5.536492|   -5.123799|  -12.948167|    4.092368|
|         230|  1.6677e+00|  7.5200e-11|  2.4824e-03|  1.0000e-03|  1.0000e-03|  1.0000e-03|   -4.916585|   -5.125567|   -5.536822|   -5.536524|   -5.123820|  -12.948161|    4.092232|
|         231|  1.6673e+00|  7.5199e-11|  2.4824e-03|  1.0000e-03|  1.0000e-03|  1.0000e-03|   -4.916599|   -5.125582|   -5.536853|   -5.536555|   -5.123842|  -12.948154|    4.092095|
|         232|  1.6671e+00|  7.5198e-11|  2.4824e-03|  1.0000e-03|  1.0000e-03|  1.0000e-03|   -4.916614|   -5.125597|   -5.536885|   -5.536587|   -5.123863|  -12.948148|    4.091958|
|         233|  1.6666e+00|  7.5197e-11|  2.4824e-03|  1.0000e-03|  1.0000e-03|  1.0000e-03|   -4.916629|   -5.125611|   -5.536917|   -5.536619|   -5.123885|  -12.948141|    4.091821|
|         234|  1.6666e+00|  7.5196e-11|  2.4824e-03|  1.0000e-03|  1.0000e-03|  1.0000e-03|   -4.916643|   -5.125626|   -5.536948|   -5.536650|   -5.123906|  -12.948135|    4.091684|
|         235|  1.6663e+00|  7.5196e-11|  2.4824e-03|  1.0000e-03|  1.0000e-03|  1.0000e-03|   -4.916658|   -5.125641|   -5.536980|   -5.536682|   -5.123928|  -12.948128|    4.091546|
|         236|  1.6660e+00|  7.5195e-11|  2.4824e-03|  1.0000e-03|  1.0000e-03|  1.0000e-03|   -4.916672|   -5.125656|   -5.537012|   -5.536713|   -5.123949|  -12.948121|    4.091409|
|         237|  1.6656e+00|  7.5194e-11|  2.4824e-03|  1.0000e-03|  1.0000e-03|  1.0000e-03|   -4.916687|   -5.125671|   -5.537043|   -5.536745|   -5.123970|  -12.948115|    4.091272|
|         238|  1.6653e+00|  7.5193e-11|  2.4824e-03|  1.0000e-03|  1.0000e-03|  1.0000e-03|   -4.916701|   -5.125685|   -5.537075|   -5.536776|   -5.123991|  -12.948108|    4.091134|
|         239|  1.6650e+00|  7.5192e-11|  2.4824e-03|  1.0000e-03|  1.0000e-03|  1.0000e-03|   -4.916716|   -5.125700|   -5.537106|   -5.536808|   -5.124013|  -12.948101|    4.090997|
|         240|  1.6647e+00|  7.5191e-11|  2.4824e-03|  1.0000e-03|  1.0000e-03|  1.0000e-03|   -4.916730|   -5.125715|   -5.537138|   -5.536840|   -5.124034|  -12.948095|    4.090859|
|         241|  1.6644e+00|  7.5190e-11|  2.4824e-03|  1.0000e-03|  1.0000e-03|  1.0000e-03|   -4.916745|   -5.125730|   -5.537169|   -5.536871|   -5.124055|  -12.948088|    4.090722|
|         242|  1.6640e+00|  7.5190e-11|  2.4824e-03|  1.0000e-03|  1.0000e-03|  1.0000e-03|   -4.916759|   -5.125745|   -5.537201|   -5.536903|   -5.124076|  -12.948081|    4.090584|
|         243|  1.6636e+00|  7.5189e-11|  2.4824e-03|  1.0000e-03|  1.0000e-03|  1.0000e-03|   -4.916773|   -5.125760|   -5.537233|   -5.536934|   -5.124097|  -12.948074|    4.090446|
|         244|  1.6633e+00|  7.5188e-11|  2.4824e-03|  1.0000e-03|  1.0000e-03|  1.0000e-03|   -4.916788|   -5.125775|   -5.537264|   -5.536965|   -5.124118|  -12.948068|    4.090309|
|         245|  1.6629e+00|  7.5187e-11|  2.4824e-03|  1.0000e-03|  1.0000e-03|  1.0000e-03|   -4.916802|   -5.125789|   -5.537295|   -5.536997|   -5.124139|  -12.948061|    4.090171|
|         246|  1.6626e+00|  7.5186e-11|  2.4824e-03|  1.0000e-03|  1.0000e-03|  1.0000e-03|   -4.916816|   -5.125804|   -5.537327|   -5.537028|   -5.124160|  -12.948054|    4.090033|
|         247|  1.6623e+00|  7.5185e-11|  2.4824e-03|  1.0000e-03|  1.0000e-03|  1.0000e-03|   -4.916831|   -5.125819|   -5.537358|   -5.537060|   -5.124181|  -12.948047|    4.089895|
|         248|  1.6619e+00|  7.5185e-11|  2.4824e-03|  1.0000e-03|  1.0000e-03|  1.0000e-03|   -4.916845|   -5.125834|   -5.537390|   -5.537091|   -5.124202|  -12.948040|    4.089756|
|         249|  1.6616e+00|  7.5184e-11|  2.4824e-03|  1.0000e-03|  1.0000e-03|  1.0000e-03|   -4.916859|   -5.125849|   -5.537421|   -5.537122|   -5.124223|  -12.948033|    4.089618|
|         250|  1.6612e+00|  7.5183e-11|  2.4824e-03|  1.0000e-03|  1.0000e-03|  1.0000e-03|   -4.916873|   -5.125864|   -5.537452|   -5.537154|   -5.124244|  -12.948026|    4.089480|
|         251|  1.6609e+00|  7.5182e-11|  2.4824e-03|  1.0000e-03|  1.0000e-03|  1.0000e-03|   -4.916887|   -5.125879|   -5.537484|   -5.537185|   -5.124264|  -12.948019|    4.089341|
|         252|  1.6606e+00|  7.5181e-11|  2.4824e-03|  1.0000e-03|  1.0000e-03|  1.0000e-03|   -4.916901|   -5.125894|   -5.537515|   -5.537216|   -5.124285|  -12.948012|    4.089203|
|         253|  1.6603e+00|  7.5180e-11|  2.4824e-03|  1.0000e-03|  1.0000e-03|  1.0000e-03|   -4.916915|   -5.125909|   -5.537546|   -5.537248|   -5.124306|  -12.948005|    4.089064|
|         254|  1.6600e+00|  7.5179e-11|  2.4824e-03|  1.0000e-03|  1.0000e-03|  1.0000e-03|   -4.916929|   -5.125924|   -5.537578|   -5.537279|   -5.124326|  -12.947998|    4.088926|
|         255|  1.6597e+00|  7.5179e-11|  2.4824e-03|  1.0000e-03|  1.0000e-03|  1.0000e-03|   -4.916943|   -5.125939|   -5.537609|   -5.537310|   -5.124347|  -12.947991|    4.088787|
|         256|  1.6593e+00|  7.5178e-11|  2.4824e-03|  1.0000e-03|  1.0000e-03|  1.0000e-03|   -4.916957|   -5.125954|   -5.537640|   -5.537341|   -5.124367|  -12.947984|    4.088648|
|         257|  1.6590e+00|  7.5177e-11|  2.4824e-03|  1.0000e-03|  1.0000e-03|  1.0000e-03|   -4.916971|   -5.125968|   -5.537672|   -5.537373|   -5.124388|  -12.947977|    4.088510|
|         258|  1.6588e+00|  7.5176e-11|  2.4824e-03|  1.0000e-03|  1.0000e-03|  1.0000e-03|   -4.916985|   -5.125983|   -5.537703|   -5.537404|   -5.124408|  -12.947970|    4.088371|
|         259|  1.6585e+00|  7.5175e-11|  2.4824e-03|  1.0000e-03|  1.0000e-03|  1.0000e-03|   -4.916999|   -5.125998|   -5.537734|   -5.537435|   -5.124429|  -12.947963|    4.088232|
|         260|  1.6582e+00|  7.5174e-11|  2.4824e-03|  1.0000e-03|  1.0000e-03|  1.0000e-03|   -4.917013|   -5.126013|   -5.537765|   -5.537466|   -5.124449|  -12.947956|    4.088093|
|         261|  1.6580e+00|  7.5174e-11|  2.4824e-03|  1.0000e-03|  1.0000e-03|  1.0000e-03|   -4.917027|   -5.126028|   -5.537796|   -5.537497|   -5.124470|  -12.947948|    4.087953|
|         262|  1.6577e+00|  7.5173e-11|  2.4824e-03|  1.0000e-03|  1.0000e-03|  1.0000e-03|   -4.917041|   -5.126043|   -5.537827|   -5.537528|   -5.124490|  -12.947941|    4.087814|
|         263|  1.6575e+00|  7.5172e-11|  2.4824e-03|  1.0000e-03|  1.0000e-03|  1.0000e-03|   -4.917054|   -5.126058|   -5.537859|   -5.537559|   -5.124510|  -12.947934|    4.087675|
|         264|  1.6572e+00|  7.5171e-11|  2.4824e-03|  1.0000e-03|  1.0000e-03|  1.0000e-03|   -4.917068|   -5.126073|   -5.537890|   -5.537590|   -5.124531|  -12.947927|    4.087536|
|         265|  1.6568e+00|  7.5170e-11|  2.4824e-03|  1.0000e-03|  1.0000e-03|  1.0000e-03|   -4.917082|   -5.126088|   -5.537921|   -5.537622|   -5.124551|  -12.947920|    4.087396|
|         266|  1.6565e+00|  7.5169e-11|  2.4824e-03|  1.0000e-03|  1.0000e-03|  1.0000e-03|   -4.917096|   -5.126103|   -5.537952|   -5.537653|   -5.124571|  -12.947912|    4.087257|
|         267|  1.6562e+00|  7.5168e-11|  2.4824e-03|  1.0000e-03|  1.0000e-03|  1.0000e-03|   -4.917109|   -5.126118|   -5.537983|   -5.537684|   -5.124591|  -12.947905|    4.087117|
|         268|  1.6560e+00|  7.5168e-11|  2.4824e-03|  1.0000e-03|  1.0000e-03|  1.0000e-03|   -4.917123|   -5.126134|   -5.538014|   -5.537715|   -5.124611|  -12.947898|    4.086977|
|         269|  1.6556e+00|  7.5167e-11|  2.4824e-03|  1.0000e-03|  1.0000e-03|  1.0000e-03|   -4.917137|   -5.126149|   -5.538045|   -5.537746|   -5.124631|  -12.947890|    4.086838|
|         270|  1.6553e+00|  7.5166e-11|  2.4824e-03|  1.0000e-03|  1.0000e-03|  1.0000e-03|   -4.917150|   -5.126164|   -5.538076|   -5.537777|   -5.124651|  -12.947883|    4.086698|
|         271|  1.6551e+00|  7.5165e-11|  2.4824e-03|  1.0000e-03|  1.0000e-03|  1.0000e-03|   -4.917164|   -5.126179|   -5.538107|   -5.537807|   -5.124671|  -12.947875|    4.086558|
|         272|  1.6549e+00|  7.5164e-11|  2.4824e-03|  1.0000e-03|  1.0000e-03|  1.0000e-03|   -4.917177|   -5.126194|   -5.538138|   -5.537838|   -5.124691|  -12.947868|    4.086418|
|         273|  1.6547e+00|  7.5163e-11|  2.4824e-03|  1.0000e-03|  1.0000e-03|  1.0000e-03|   -4.917191|   -5.126209|   -5.538169|   -5.537869|   -5.124711|  -12.947861|    4.086278|
|         274|  1.6545e+00|  7.5163e-11|  2.4824e-03|  1.0000e-03|  1.0000e-03|  1.0000e-03|   -4.917204|   -5.126224|   -5.538200|   -5.537900|   -5.124731|  -12.947853|    4.086138|
|         275|  1.6545e+00|  7.5162e-11|  2.4824e-03|  1.0000e-03|  1.0000e-03|  1.0000e-03|   -4.917218|   -5.126239|   -5.538231|   -5.537931|   -5.124751|  -12.947846|    4.085998|
|         276|  1.6543e+00|  7.5161e-11|  2.4824e-03|  1.0000e-03|  1.0000e-03|  1.0000e-03|   -4.917231|   -5.126254|   -5.538261|   -5.537962|   -5.124770|  -12.947838|    4.085857|
|         277|  1.6541e+00|  7.5160e-11|  2.4824e-03|  1.0000e-03|  1.0000e-03|  1.0000e-03|   -4.917244|   -5.126269|   -5.538292|   -5.537993|   -5.124790|  -12.947831|    4.085717|
|         278|  1.6540e+00|  7.5159e-11|  2.4824e-03|  1.0000e-03|  1.0000e-03|  1.0000e-03|   -4.917258|   -5.126284|   -5.538323|   -5.538024|   -5.124810|  -12.947823|    4.085577|
|         279|  1.6538e+00|  7.5158e-11|  2.4824e-03|  1.0000e-03|  1.0000e-03|  1.0000e-03|   -4.917271|   -5.126299|   -5.538354|   -5.538054|   -5.124830|  -12.947816|    4.085436|
|         280|  1.6535e+00|  7.5157e-11|  2.4824e-03|  1.0000e-03|  1.0000e-03|  1.0000e-03|   -4.917284|   -5.126315|   -5.538385|   -5.538085|   -5.124849|  -12.947808|    4.085296|
|         281|  1.6533e+00|  7.5157e-11|  2.4824e-03|  1.0000e-03|  1.0000e-03|  1.0000e-03|   -4.917298|   -5.126330|   -5.538416|   -5.538116|   -5.124869|  -12.947800|    4.085155|
|         282|  1.6530e+00|  7.5156e-11|  2.4824e-03|  1.0000e-03|  1.0000e-03|  1.0000e-03|   -4.917311|   -5.126345|   -5.538446|   -5.538147|   -5.124888|  -12.947793|    4.085014|
|         283|  1.6527e+00|  7.5155e-11|  2.4824e-03|  1.0000e-03|  1.0000e-03|  1.0000e-03|   -4.917324|   -5.126360|   -5.538477|   -5.538177|   -5.124908|  -12.947785|    4.084873|
|         284|  1.6525e+00|  7.5154e-11|  2.4824e-03|  1.0000e-03|  1.0000e-03|  1.0000e-03|   -4.917337|   -5.126375|   -5.538508|   -5.538208|   -5.124927|  -12.947777|    4.084732|
|         285|  1.6522e+00|  7.5153e-11|  2.4824e-03|  1.0000e-03|  1.0000e-03|  1.0000e-03|   -4.917351|   -5.126390|   -5.538539|   -5.538239|   -5.124947|  -12.947770|    4.084592|
|         286|  1.6519e+00|  7.5152e-11|  2.4824e-03|  1.0000e-03|  1.0000e-03|  1.0000e-03|   -4.917364|   -5.126406|   -5.538569|   -5.538269|   -5.124966|  -12.947762|    4.084451|
|         287|  1.6516e+00|  7.5152e-11|  2.4824e-03|  1.0000e-03|  1.0000e-03|  1.0000e-03|   -4.917377|   -5.126421|   -5.538600|   -5.538300|   -5.124985|  -12.947754|    4.084309|
|         288|  1.6514e+00|  7.5151e-11|  2.4824e-03|  1.0000e-03|  1.0000e-03|  1.0000e-03|   -4.917390|   -5.126436|   -5.538631|   -5.538331|   -5.125005|  -12.947746|    4.084168|
|         289|  1.6511e+00|  7.5150e-11|  2.4824e-03|  1.0000e-03|  1.0000e-03|  1.0000e-03|   -4.917403|   -5.126451|   -5.538661|   -5.538361|   -5.125024|  -12.947739|    4.084027|
|         290|  1.6509e+00|  7.5149e-11|  2.4824e-03|  1.0000e-03|  1.0000e-03|  1.0000e-03|   -4.917416|   -5.126466|   -5.538692|   -5.538392|   -5.125043|  -12.947731|    4.083886|
|         291|  1.6507e+00|  7.5148e-11|  2.4824e-03|  1.0000e-03|  1.0000e-03|  1.0000e-03|   -4.917429|   -5.126482|   -5.538722|   -5.538422|   -5.125062|  -12.947723|    4.083744|
|         292|  1.6504e+00|  7.5147e-11|  2.4824e-03|  1.0000e-03|  1.0000e-03|  1.0000e-03|   -4.917442|   -5.126497|   -5.538753|   -5.538453|   -5.125082|  -12.947715|    4.083603|
|         293|  1.6501e+00|  7.5146e-11|  2.4824e-03|  1.0000e-03|  1.0000e-03|  1.0000e-03|   -4.917455|   -5.126512|   -5.538784|   -5.538483|   -5.125101|  -12.947707|    4.083461|
|         294|  1.6498e+00|  7.5146e-11|  2.4824e-03|  1.0000e-03|  1.0000e-03|  1.0000e-03|   -4.917468|   -5.126527|   -5.538814|   -5.538514|   -5.125120|  -12.947699|    4.083320|
|         295|  1.6496e+00|  7.5145e-11|  2.4824e-03|  1.0000e-03|  1.0000e-03|  1.0000e-03|   -4.917481|   -5.126542|   -5.538845|   -5.538544|   -5.125139|  -12.947692|    4.083178|
|         296|  1.6493e+00|  7.5144e-11|  2.4824e-03|  1.0000e-03|  1.0000e-03|  1.0000e-03|   -4.917493|   -5.126558|   -5.538875|   -5.538575|   -5.125158|  -12.947684|    4.083036|
|         297|  1.6491e+00|  7.5143e-11|  2.4824e-03|  1.0000e-03|  1.0000e-03|  1.0000e-03|   -4.917506|   -5.126573|   -5.538906|   -5.538605|   -5.125177|  -12.947676|    4.082894|
|         298|  1.6488e+00|  7.5142e-11|  2.4824e-03|  1.0000e-03|  1.0000e-03|  1.0000e-03|   -4.917519|   -5.126588|   -5.538936|   -5.538636|   -5.125196|  -12.947668|    4.082753|
|         299|  1.6486e+00|  7.5141e-11|  2.4824e-03|  1.0000e-03|  1.0000e-03|  1.0000e-03|   -4.917532|   -5.126603|   -5.538966|   -5.538666|   -5.125215|  -12.947660|    4.082611|
|         300|  1.6484e+00|  7.5141e-11|  2.4824e-03|  1.0000e-03|  1.0000e-03|  1.0000e-03|   -4.917544|   -5.126619|   -5.538997|   -5.538697|   -5.125233|  -12.947652|    4.082468|
+-----------------------------------------------------------------------+
|        File Writing Summary       |              Filename             |
+-----------------------------------------------------------------------+
|SU2 binary restart                 |restart_flow.dat                   |
|Paraview                           |flow.vtu                           |
|Paraview surface                   |surface_flow.vtu                   |
+-----------------------------------------------------------------------+
+-------------------------------------------------------------------------------------------------------------------------------------------------------------------------------------+
|  Inner_Iter|   Time(sec)|      Min DT|      Max DT|     Min CFL|     Max CFL|     Avg CFL|    rms[Rho]|   rms[RhoU]|   rms[RhoV]|   rms[RhoW]|   rms[RhoE]|     rms[nu]|          CD|
+-------------------------------------------------------------------------------------------------------------------------------------------------------------------------------------+
|         301|  1.6971e+00|  7.5140e-11|  2.4824e-03|  1.0000e-03|  1.0000e-03|  1.0000e-03|   -4.917557|   -5.126634|   -5.539027|   -5.538727|   -5.125252|  -12.947644|    4.082326|
|         302|  1.6974e+00|  7.5139e-11|  2.4824e-03|  1.0000e-03|  1.0000e-03|  1.0000e-03|   -4.917570|   -5.126649|   -5.539058|   -5.538757|   -5.125271|  -12.947636|    4.082184|
|         303|  1.6975e+00|  7.5138e-11|  2.4824e-03|  1.0000e-03|  1.0000e-03|  1.0000e-03|   -4.917582|   -5.126665|   -5.539088|   -5.538788|   -5.125290|  -12.947628|    4.082042|
|         304|  1.6974e+00|  7.5137e-11|  2.4824e-03|  1.0000e-03|  1.0000e-03|  1.0000e-03|   -4.917595|   -5.126680|   -5.539118|   -5.538818|   -5.125308|  -12.947619|    4.081899|
|         305|  1.6971e+00|  7.5136e-11|  2.4824e-03|  1.0000e-03|  1.0000e-03|  1.0000e-03|   -4.917608|   -5.126695|   -5.539149|   -5.538848|   -5.125327|  -12.947611|    4.081757|
|         306|  1.6968e+00|  7.5136e-11|  2.4824e-03|  1.0000e-03|  1.0000e-03|  1.0000e-03|   -4.917620|   -5.126711|   -5.539179|   -5.538878|   -5.125346|  -12.947603|    4.081615|
|         307|  1.6965e+00|  7.5135e-11|  2.4824e-03|  1.0000e-03|  1.0000e-03|  1.0000e-03|   -4.917633|   -5.126726|   -5.539209|   -5.538909|   -5.125364|  -12.947595|    4.081472|
|         308|  1.6961e+00|  7.5134e-11|  2.4824e-03|  1.0000e-03|  1.0000e-03|  1.0000e-03|   -4.917645|   -5.126741|   -5.539240|   -5.538939|   -5.125383|  -12.947587|    4.081329|
|         309|  1.6958e+00|  7.5133e-11|  2.4824e-03|  1.0000e-03|  1.0000e-03|  1.0000e-03|   -4.917658|   -5.126757|   -5.539270|   -5.538969|   -5.125401|  -12.947579|    4.081187|
|         310|  1.6954e+00|  7.5132e-11|  2.4824e-03|  1.0000e-03|  1.0000e-03|  1.0000e-03|   -4.917670|   -5.126772|   -5.539300|   -5.538999|   -5.125420|  -12.947570|    4.081044|
|         311|  1.6951e+00|  7.5131e-11|  2.4824e-03|  1.0000e-03|  1.0000e-03|  1.0000e-03|   -4.917683|   -5.126787|   -5.539330|   -5.539030|   -5.125438|  -12.947562|    4.080901|
|         312|  1.6948e+00|  7.5130e-11|  2.4824e-03|  1.0000e-03|  1.0000e-03|  1.0000e-03|   -4.917695|   -5.126803|   -5.539360|   -5.539060|   -5.125456|  -12.947554|    4.080758|
|         313|  1.6946e+00|  7.5130e-11|  2.4824e-03|  1.0000e-03|  1.0000e-03|  1.0000e-03|   -4.917707|   -5.126818|   -5.539391|   -5.539090|   -5.125475|  -12.947546|    4.080615|
|         314|  1.6943e+00|  7.5129e-11|  2.4824e-03|  1.0000e-03|  1.0000e-03|  1.0000e-03|   -4.917720|   -5.126833|   -5.539421|   -5.539120|   -5.125493|  -12.947537|    4.080472|
|         315|  1.6940e+00|  7.5128e-11|  2.4824e-03|  1.0000e-03|  1.0000e-03|  1.0000e-03|   -4.917732|   -5.126849|   -5.539451|   -5.539150|   -5.125511|  -12.947529|    4.080329|
|         316|  1.6938e+00|  7.5127e-11|  2.4824e-03|  1.0000e-03|  1.0000e-03|  1.0000e-03|   -4.917744|   -5.126864|   -5.539481|   -5.539180|   -5.125529|  -12.947521|    4.080185|
|         317|  1.6935e+00|  7.5126e-11|  2.4824e-03|  1.0000e-03|  1.0000e-03|  1.0000e-03|   -4.917757|   -5.126880|   -5.539511|   -5.539210|   -5.125548|  -12.947512|    4.080042|
|         318|  1.6933e+00|  7.5125e-11|  2.4824e-03|  1.0000e-03|  1.0000e-03|  1.0000e-03|   -4.917769|   -5.126895|   -5.539541|   -5.539240|   -5.125566|  -12.947504|    4.079899|
|         319|  1.6929e+00|  7.5125e-11|  2.4824e-03|  1.0000e-03|  1.0000e-03|  1.0000e-03|   -4.917781|   -5.126910|   -5.539571|   -5.539270|   -5.125584|  -12.947496|    4.079755|
|         320|  1.6927e+00|  7.5124e-11|  2.4824e-03|  1.0000e-03|  1.0000e-03|  1.0000e-03|   -4.917793|   -5.126926|   -5.539601|   -5.539300|   -5.125602|  -12.947487|    4.079612|
|         321|  1.6924e+00|  7.5123e-11|  2.4824e-03|  1.0000e-03|  1.0000e-03|  1.0000e-03|   -4.917805|   -5.126941|   -5.539631|   -5.539330|   -5.125620|  -12.947479|    4.079468|
|         322|  1.6921e+00|  7.5122e-11|  2.4824e-03|  1.0000e-03|  1.0000e-03|  1.0000e-03|   -4.917817|   -5.126957|   -5.539661|   -5.539360|   -5.125638|  -12.947470|    4.079324|
|         323|  1.6917e+00|  7.5121e-11|  2.4824e-03|  1.0000e-03|  1.0000e-03|  1.0000e-03|   -4.917829|   -5.126972|   -5.539691|   -5.539390|   -5.125656|  -12.947462|    4.079181|
|         324|  1.6913e+00|  7.5120e-11|  2.4824e-03|  1.0000e-03|  1.0000e-03|  1.0000e-03|   -4.917841|   -5.126988|   -5.539721|   -5.539420|   -5.125674|  -12.947453|    4.079037|
|         325|  1.6910e+00|  7.5119e-11|  2.4824e-03|  1.0000e-03|  1.0000e-03|  1.0000e-03|   -4.917853|   -5.127003|   -5.539751|   -5.539450|   -5.125691|  -12.947445|    4.078893|
|         326|  1.6906e+00|  7.5119e-11|  2.4824e-03|  1.0000e-03|  1.0000e-03|  1.0000e-03|   -4.917865|   -5.127019|   -5.539781|   -5.539480|   -5.125709|  -12.947436|    4.078749|
|         327|  1.6902e+00|  7.5118e-11|  2.4824e-03|  1.0000e-03|  1.0000e-03|  1.0000e-03|   -4.917877|   -5.127034|   -5.539811|   -5.539510|   -5.125727|  -12.947428|    4.078605|
|         328|  1.6899e+00|  7.5117e-11|  2.4824e-03|  1.0000e-03|  1.0000e-03|  1.0000e-03|   -4.917889|   -5.127049|   -5.539841|   -5.539540|   -5.125745|  -12.947419|    4.078461|
|         329|  1.6895e+00|  7.5116e-11|  2.4824e-03|  1.0000e-03|  1.0000e-03|  1.0000e-03|   -4.917901|   -5.127065|   -5.539871|   -5.539569|   -5.125762|  -12.947410|    4.078317|
|         330|  1.6892e+00|  7.5115e-11|  2.4824e-03|  1.0000e-03|  1.0000e-03|  1.0000e-03|   -4.917913|   -5.127080|   -5.539900|   -5.539599|   -5.125780|  -12.947402|    4.078172|
|         331|  1.6889e+00|  7.5114e-11|  2.4824e-03|  1.0000e-03|  1.0000e-03|  1.0000e-03|   -4.917925|   -5.127096|   -5.539930|   -5.539629|   -5.125798|  -12.947393|    4.078028|
|         332|  1.6886e+00|  7.5114e-11|  2.4824e-03|  1.0000e-03|  1.0000e-03|  1.0000e-03|   -4.917937|   -5.127111|   -5.539960|   -5.539659|   -5.125815|  -12.947384|    4.077883|
|         333|  1.6884e+00|  7.5113e-11|  2.4824e-03|  1.0000e-03|  1.0000e-03|  1.0000e-03|   -4.917949|   -5.127127|   -5.539990|   -5.539689|   -5.125833|  -12.947376|    4.077739|
|         334|  1.6882e+00|  7.5112e-11|  2.4824e-03|  1.0000e-03|  1.0000e-03|  1.0000e-03|   -4.917960|   -5.127142|   -5.540020|   -5.539718|   -5.125850|  -12.947367|    4.077594|
|         335|  1.6878e+00|  7.5111e-11|  2.4824e-03|  1.0000e-03|  1.0000e-03|  1.0000e-03|   -4.917972|   -5.127158|   -5.540049|   -5.539748|   -5.125868|  -12.947358|    4.077450|
|         336|  1.6876e+00|  7.5110e-11|  2.4824e-03|  1.0000e-03|  1.0000e-03|  1.0000e-03|   -4.917984|   -5.127174|   -5.540079|   -5.539778|   -5.125885|  -12.947350|    4.077305|
|         337|  1.6874e+00|  7.5109e-11|  2.4824e-03|  1.0000e-03|  1.0000e-03|  1.0000e-03|   -4.917995|   -5.127189|   -5.540109|   -5.539807|   -5.125903|  -12.947341|    4.077160|
|         338|  1.6873e+00|  7.5109e-11|  2.4824e-03|  1.0000e-03|  1.0000e-03|  1.0000e-03|   -4.918007|   -5.127205|   -5.540138|   -5.539837|   -5.125920|  -12.947332|    4.077015|
|         339|  1.6870e+00|  7.5108e-11|  2.4824e-03|  1.0000e-03|  1.0000e-03|  1.0000e-03|   -4.918019|   -5.127220|   -5.540168|   -5.539867|   -5.125937|  -12.947323|    4.076870|
|         340|  1.6867e+00|  7.5107e-11|  2.4824e-03|  1.0000e-03|  1.0000e-03|  1.0000e-03|   -4.918030|   -5.127236|   -5.540198|   -5.539896|   -5.125954|  -12.947314|    4.076725|
|         341|  1.6864e+00|  7.5106e-11|  2.4824e-03|  1.0000e-03|  1.0000e-03|  1.0000e-03|   -4.918042|   -5.127251|   -5.540227|   -5.539926|   -5.125972|  -12.947305|    4.076580|
|         342|  1.6861e+00|  7.5105e-11|  2.4824e-03|  1.0000e-03|  1.0000e-03|  1.0000e-03|   -4.918053|   -5.127267|   -5.540257|   -5.539955|   -5.125989|  -12.947297|    4.076435|
|         343|  1.6857e+00|  7.5104e-11|  2.4824e-03|  1.0000e-03|  1.0000e-03|  1.0000e-03|   -4.918065|   -5.127283|   -5.540287|   -5.539985|   -5.126006|  -12.947288|    4.076290|
|         344|  1.6854e+00|  7.5103e-11|  2.4824e-03|  1.0000e-03|  1.0000e-03|  1.0000e-03|   -4.918076|   -5.127298|   -5.540316|   -5.540014|   -5.126023|  -12.947279|    4.076145|
|         345|  1.6850e+00|  7.5103e-11|  2.4824e-03|  1.0000e-03|  1.0000e-03|  1.0000e-03|   -4.918088|   -5.127314|   -5.540346|   -5.540044|   -5.126040|  -12.947270|    4.075999|
|         346|  1.6846e+00|  7.5102e-11|  2.4824e-03|  1.0000e-03|  1.0000e-03|  1.0000e-03|   -4.918099|   -5.127329|   -5.540375|   -5.540073|   -5.126057|  -12.947261|    4.075854|
|         347|  1.6843e+00|  7.5101e-11|  2.4824e-03|  1.0000e-03|  1.0000e-03|  1.0000e-03|   -4.918111|   -5.127345|   -5.540405|   -5.540103|   -5.126074|  -12.947252|    4.075708|
|         348|  1.6840e+00|  7.5100e-11|  2.4824e-03|  1.0000e-03|  1.0000e-03|  1.0000e-03|   -4.918122|   -5.127361|   -5.540434|   -5.540132|   -5.126091|  -12.947243|    4.075563|
|         349|  1.6836e+00|  7.5099e-11|  2.4824e-03|  1.0000e-03|  1.0000e-03|  1.0000e-03|   -4.918133|   -5.127376|   -5.540464|   -5.540162|   -5.126108|  -12.947234|    4.075417|
|         350|  1.6832e+00|  7.5098e-11|  2.4824e-03|  1.0000e-03|  1.0000e-03|  1.0000e-03|   -4.918145|   -5.127392|   -5.540493|   -5.540191|   -5.126125|  -12.947225|    4.075271|
[...]
|        6656|  1.6815e+00|  7.0286e-11|  2.4824e-03|  1.0000e-03|  1.0000e-03|  1.0000e-03|   -4.980136|   -5.113511|   -5.606043|   -5.605766|   -5.198286|  -13.006427|    2.916242|
|        6657|  1.6814e+00|  7.0285e-11|  2.4824e-03|  1.0000e-03|  1.0000e-03|  1.0000e-03|   -4.980172|   -5.113510|   -5.606066|   -5.605789|   -5.198325|  -13.006441|    2.916186|
|        6658|  1.6814e+00|  7.0284e-11|  2.4824e-03|  1.0000e-03|  1.0000e-03|  1.0000e-03|   -4.980207|   -5.113509|   -5.606088|   -5.605811|   -5.198363|  -13.006454|    2.916131|
|        6659|  1.6814e+00|  7.0284e-11|  2.4824e-03|  1.0000e-03|  1.0000e-03|  1.0000e-03|   -4.980243|   -5.113508|   -5.606111|   -5.605833|   -5.198401|  -13.006468|    2.916076|
|        6660|  1.6814e+00|  7.0283e-11|  2.4824e-03|  1.0000e-03|  1.0000e-03|  1.0000e-03|   -4.980279|   -5.113506|   -5.606133|   -5.605856|   -5.198439|  -13.006481|    2.916020|
|        6661|  1.6814e+00|  7.0282e-11|  2.4824e-03|  1.0000e-03|  1.0000e-03|  1.0000e-03|   -4.980314|   -5.113505|   -5.606156|   -5.605878|   -5.198477|  -13.006495|    2.915965|
|        6662|  1.6814e+00|  7.0282e-11|  2.4824e-03|  1.0000e-03|  1.0000e-03|  1.0000e-03|   -4.980350|   -5.113504|   -5.606178|   -5.605900|   -5.198516|  -13.006508|    2.915910|
|        6663|  1.6814e+00|  7.0281e-11|  2.4824e-03|  1.0000e-03|  1.0000e-03|  1.0000e-03|   -4.980385|   -5.113503|   -5.606200|   -5.605923|   -5.198554|  -13.006522|    2.915855|
|        6664|  1.6814e+00|  7.0280e-11|  2.4824e-03|  1.0000e-03|  1.0000e-03|  1.0000e-03|   -4.980420|   -5.113501|   -5.606223|   -5.605945|   -5.198592|  -13.006535|    2.915800|
|        6665|  1.6813e+00|  7.0280e-11|  2.4824e-03|  1.0000e-03|  1.0000e-03|  1.0000e-03|   -4.980456|   -5.113500|   -5.606245|   -5.605967|   -5.198630|  -13.006548|    2.915745|
|        6666|  1.6813e+00|  7.0279e-11|  2.4824e-03|  1.0000e-03|  1.0000e-03|  1.0000e-03|   -4.980491|   -5.113499|   -5.606267|   -5.605990|   -5.198668|  -13.006562|    2.915691|
|        6667|  1.6813e+00|  7.0278e-11|  2.4824e-03|  1.0000e-03|  1.0000e-03|  1.0000e-03|   -4.980527|   -5.113498|   -5.606290|   -5.606012|   -5.198706|  -13.006575|    2.915636|
|        6668|  1.6813e+00|  7.0278e-11|  2.4824e-03|  1.0000e-03|  1.0000e-03|  1.0000e-03|   -4.980562|   -5.113497|   -5.606312|   -5.606034|   -5.198743|  -13.006588|    2.915581|
|        6669|  1.6813e+00|  7.0277e-11|  2.4824e-03|  1.0000e-03|  1.0000e-03|  1.0000e-03|   -4.980597|   -5.113496|   -5.606334|   -5.606057|   -5.198781|  -13.006601|    2.915527|
|        6670|  1.6813e+00|  7.0276e-11|  2.4824e-03|  1.0000e-03|  1.0000e-03|  1.0000e-03|   -4.980633|   -5.113494|   -5.606357|   -5.606079|   -5.198819|  -13.006615|    2.915472|
|        6671|  1.6813e+00|  7.0275e-11|  2.4824e-03|  1.0000e-03|  1.0000e-03|  1.0000e-03|   -4.980668|   -5.113493|   -5.606379|   -5.606101|   -5.198857|  -13.006628|    2.915418|
|        6672|  1.6812e+00|  7.0275e-11|  2.4824e-03|  1.0000e-03|  1.0000e-03|  1.0000e-03|   -4.980703|   -5.113492|   -5.606401|   -5.606123|   -5.198895|  -13.006641|    2.915363|
|        6673|  1.6812e+00|  7.0274e-11|  2.4824e-03|  1.0000e-03|  1.0000e-03|  1.0000e-03|   -4.980738|   -5.113491|   -5.606423|   -5.606146|   -5.198932|  -13.006654|    2.915309|
|        6674|  1.6812e+00|  7.0273e-11|  2.4824e-03|  1.0000e-03|  1.0000e-03|  1.0000e-03|   -4.980773|   -5.113490|   -5.606446|   -5.606168|   -5.198970|  -13.006667|    2.915255|
|        6675|  1.6812e+00|  7.0273e-11|  2.4824e-03|  1.0000e-03|  1.0000e-03|  1.0000e-03|   -4.980809|   -5.113489|   -5.606468|   -5.606190|   -5.199008|  -13.006680|    2.915201|
|        6676|  1.6812e+00|  7.0272e-11|  2.4824e-03|  1.0000e-03|  1.0000e-03|  1.0000e-03|   -4.980844|   -5.113488|   -5.606490|   -5.606212|   -5.199045|  -13.006694|    2.915147|
|        6677|  1.6812e+00|  7.0271e-11|  2.4824e-03|  1.0000e-03|  1.0000e-03|  1.0000e-03|   -4.980879|   -5.113487|   -5.606512|   -5.606234|   -5.199083|  -13.006707|    2.915093|
|        6678|  1.6812e+00|  7.0271e-11|  2.4824e-03|  1.0000e-03|  1.0000e-03|  1.0000e-03|   -4.980914|   -5.113486|   -5.606535|   -5.606257|   -5.199120|  -13.006720|    2.915039|
|        6679|  1.6811e+00|  7.0270e-11|  2.4824e-03|  1.0000e-03|  1.0000e-03|  1.0000e-03|   -4.980949|   -5.113485|   -5.606557|   -5.606279|   -5.199158|  -13.006733|    2.914985|
|        6680|  1.6811e+00|  7.0269e-11|  2.4824e-03|  1.0000e-03|  1.0000e-03|  1.0000e-03|   -4.980984|   -5.113484|   -5.606579|   -5.606301|   -5.199195|  -13.006746|    2.914932|
|        6681|  1.6811e+00|  7.0269e-11|  2.4824e-03|  1.0000e-03|  1.0000e-03|  1.0000e-03|   -4.981019|   -5.113483|   -5.606601|   -5.606323|   -5.199233|  -13.006759|    2.914878|
|        6682|  1.6811e+00|  7.0268e-11|  2.4824e-03|  1.0000e-03|  1.0000e-03|  1.0000e-03|   -4.981054|   -5.113481|   -5.606623|   -5.606345|   -5.199270|  -13.006771|    2.914824|
|        6683|  1.6811e+00|  7.0267e-11|  2.4824e-03|  1.0000e-03|  1.0000e-03|  1.0000e-03|   -4.981089|   -5.113480|   -5.606645|   -5.606367|   -5.199307|  -13.006784|    2.914771|
|        6684|  1.6811e+00|  7.0266e-11|  2.4824e-03|  1.0000e-03|  1.0000e-03|  1.0000e-03|   -4.981124|   -5.113479|   -5.606667|   -5.606389|   -5.199345|  -13.006797|    2.914718|
|        6685|  1.6810e+00|  7.0266e-11|  2.4824e-03|  1.0000e-03|  1.0000e-03|  1.0000e-03|   -4.981159|   -5.113478|   -5.606690|   -5.606411|   -5.199382|  -13.006810|    2.914664|
|        6686|  1.6810e+00|  7.0265e-11|  2.4824e-03|  1.0000e-03|  1.0000e-03|  1.0000e-03|   -4.981194|   -5.113478|   -5.606712|   -5.606434|   -5.199419|  -13.006823|    2.914611|
|        6687|  1.6810e+00|  7.0264e-11|  2.4824e-03|  1.0000e-03|  1.0000e-03|  1.0000e-03|   -4.981229|   -5.113477|   -5.606734|   -5.606456|   -5.199456|  -13.006836|    2.914558|
|        6688|  1.6810e+00|  7.0264e-11|  2.4824e-03|  1.0000e-03|  1.0000e-03|  1.0000e-03|   -4.981263|   -5.113476|   -5.606756|   -5.606478|   -5.199493|  -13.006849|    2.914505|
|        6689|  1.6810e+00|  7.0263e-11|  2.4824e-03|  1.0000e-03|  1.0000e-03|  1.0000e-03|   -4.981298|   -5.113475|   -5.606778|   -5.606500|   -5.199530|  -13.006861|    2.914452|
|        6690|  1.6809e+00|  7.0262e-11|  2.4824e-03|  1.0000e-03|  1.0000e-03|  1.0000e-03|   -4.981333|   -5.113474|   -5.606800|   -5.606522|   -5.199568|  -13.006874|    2.914399|
|        6691|  1.6809e+00|  7.0262e-11|  2.4824e-03|  1.0000e-03|  1.0000e-03|  1.0000e-03|   -4.981368|   -5.113473|   -5.606822|   -5.606544|   -5.199605|  -13.006887|    2.914346|
|        6692|  1.6809e+00|  7.0261e-11|  2.4824e-03|  1.0000e-03|  1.0000e-03|  1.0000e-03|   -4.981402|   -5.113472|   -5.606844|   -5.606566|   -5.199642|  -13.006899|    2.914293|
|        6693|  1.6809e+00|  7.0260e-11|  2.4824e-03|  1.0000e-03|  1.0000e-03|  1.0000e-03|   -4.981437|   -5.113471|   -5.606866|   -5.606588|   -5.199679|  -13.006912|    2.914240|
|        6694|  1.6809e+00|  7.0260e-11|  2.4824e-03|  1.0000e-03|  1.0000e-03|  1.0000e-03|   -4.981472|   -5.113470|   -5.606888|   -5.606610|   -5.199715|  -13.006925|    2.914188|
|        6695|  1.6809e+00|  7.0259e-11|  2.4824e-03|  1.0000e-03|  1.0000e-03|  1.0000e-03|   -4.981506|   -5.113469|   -5.606910|   -5.606632|   -5.199752|  -13.006937|    2.914135|
|        6696|  1.6808e+00|  7.0258e-11|  2.4824e-03|  1.0000e-03|  1.0000e-03|  1.0000e-03|   -4.981541|   -5.113468|   -5.606932|   -5.606654|   -5.199789|  -13.006950|    2.914083|
|        6697|  1.6808e+00|  7.0257e-11|  2.4824e-03|  1.0000e-03|  1.0000e-03|  1.0000e-03|   -4.981576|   -5.113467|   -5.606954|   -5.606675|   -5.199826|  -13.006962|    2.914030|
|        6698|  1.6808e+00|  7.0257e-11|  2.4824e-03|  1.0000e-03|  1.0000e-03|  1.0000e-03|   -4.981610|   -5.113467|   -5.606976|   -5.606697|   -5.199863|  -13.006975|    2.913978|
|        6699|  1.6808e+00|  7.0256e-11|  2.4824e-03|  1.0000e-03|  1.0000e-03|  1.0000e-03|   -4.981645|   -5.113466|   -5.606998|   -5.606719|   -5.199899|  -13.006987|    2.913926|
|        6700|  1.6808e+00|  7.0255e-11|  2.4824e-03|  1.0000e-03|  1.0000e-03|  1.0000e-03|   -4.981679|   -5.113465|   -5.607020|   -5.606741|   -5.199936|  -13.007000|    2.913874|
|        6701|  1.6808e+00|  7.0255e-11|  2.4824e-03|  1.0000e-03|  1.0000e-03|  1.0000e-03|   -4.981714|   -5.113464|   -5.607042|   -5.606763|   -5.199973|  -13.007012|    2.913821|
|        6702|  1.6808e+00|  7.0254e-11|  2.4824e-03|  1.0000e-03|  1.0000e-03|  1.0000e-03|   -4.981748|   -5.113463|   -5.607063|   -5.606785|   -5.200009|  -13.007025|    2.913769|
|        6703|  1.6808e+00|  7.0253e-11|  2.4824e-03|  1.0000e-03|  1.0000e-03|  1.0000e-03|   -4.981783|   -5.113462|   -5.607085|   -5.606807|   -5.200046|  -13.007037|    2.913718|
|        6704|  1.6808e+00|  7.0253e-11|  2.4824e-03|  1.0000e-03|  1.0000e-03|  1.0000e-03|   -4.981817|   -5.113462|   -5.607107|   -5.606829|   -5.200083|  -13.007050|    2.913666|
|        6705|  1.6807e+00|  7.0252e-11|  2.4824e-03|  1.0000e-03|  1.0000e-03|  1.0000e-03|   -4.981851|   -5.113461|   -5.607129|   -5.606850|   -5.200119|  -13.007062|    2.913614|
|        6706|  1.6807e+00|  7.0251e-11|  2.4824e-03|  1.0000e-03|  1.0000e-03|  1.0000e-03|   -4.981886|   -5.113460|   -5.607151|   -5.606872|   -5.200156|  -13.007074|    2.913562|
|        6707|  1.6807e+00|  7.0251e-11|  2.4824e-03|  1.0000e-03|  1.0000e-03|  1.0000e-03|   -4.981920|   -5.113459|   -5.607173|   -5.606894|   -5.200192|  -13.007087|    2.913511|
|        6708|  1.6807e+00|  7.0250e-11|  2.4824e-03|  1.0000e-03|  1.0000e-03|  1.0000e-03|   -4.981954|   -5.113459|   -5.607194|   -5.606916|   -5.200228|  -13.007099|    2.913459|
|        6709|  1.6807e+00|  7.0249e-11|  2.4824e-03|  1.0000e-03|  1.0000e-03|  1.0000e-03|   -4.981989|   -5.113458|   -5.607216|   -5.606938|   -5.200265|  -13.007111|    2.913407|
|        6710|  1.6807e+00|  7.0249e-11|  2.4824e-03|  1.0000e-03|  1.0000e-03|  1.0000e-03|   -4.982023|   -5.113457|   -5.607238|   -5.606959|   -5.200301|  -13.007123|    2.913356|
|        6711|  1.6807e+00|  7.0248e-11|  2.4824e-03|  1.0000e-03|  1.0000e-03|  1.0000e-03|   -4.982057|   -5.113456|   -5.607260|   -5.606981|   -5.200337|  -13.007136|    2.913305|
|        6712|  1.6807e+00|  7.0247e-11|  2.4824e-03|  1.0000e-03|  1.0000e-03|  1.0000e-03|   -4.982091|   -5.113456|   -5.607282|   -5.607003|   -5.200374|  -13.007148|    2.913253|
|        6713|  1.6807e+00|  7.0246e-11|  2.4824e-03|  1.0000e-03|  1.0000e-03|  1.0000e-03|   -4.982125|   -5.113455|   -5.607303|   -5.607025|   -5.200410|  -13.007160|    2.913202|
|        6714|  1.6806e+00|  7.0246e-11|  2.4824e-03|  1.0000e-03|  1.0000e-03|  1.0000e-03|   -4.982160|   -5.113454|   -5.607325|   -5.607046|   -5.200446|  -13.007172|    2.913151|
|        6715|  1.6806e+00|  7.0245e-11|  2.4824e-03|  1.0000e-03|  1.0000e-03|  1.0000e-03|   -4.982194|   -5.113454|   -5.607347|   -5.607068|   -5.200482|  -13.007184|    2.913100|
|        6716|  1.6806e+00|  7.0244e-11|  2.4824e-03|  1.0000e-03|  1.0000e-03|  1.0000e-03|   -4.982228|   -5.113453|   -5.607369|   -5.607090|   -5.200518|  -13.007196|    2.913049|
|        6717|  1.6806e+00|  7.0244e-11|  2.4824e-03|  1.0000e-03|  1.0000e-03|  1.0000e-03|   -4.982262|   -5.113452|   -5.607390|   -5.607111|   -5.200554|  -13.007208|    2.912998|
|        6718|  1.6806e+00|  7.0243e-11|  2.4824e-03|  1.0000e-03|  1.0000e-03|  1.0000e-03|   -4.982296|   -5.113452|   -5.607412|   -5.607133|   -5.200590|  -13.007220|    2.912948|
|        6719|  1.6806e+00|  7.0242e-11|  2.4824e-03|  1.0000e-03|  1.0000e-03|  1.0000e-03|   -4.982330|   -5.113451|   -5.607434|   -5.607155|   -5.200626|  -13.007232|    2.912897|
|        6720|  1.6805e+00|  7.0242e-11|  2.4824e-03|  1.0000e-03|  1.0000e-03|  1.0000e-03|   -4.982364|   -5.113450|   -5.607455|   -5.607176|   -5.200662|  -13.007244|    2.912846|
|        6721|  1.6805e+00|  7.0241e-11|  2.4824e-03|  1.0000e-03|  1.0000e-03|  1.0000e-03|   -4.982398|   -5.113450|   -5.607477|   -5.607198|   -5.200698|  -13.007256|    2.912796|
|        6722|  1.6805e+00|  7.0240e-11|  2.4824e-03|  1.0000e-03|  1.0000e-03|  1.0000e-03|   -4.982432|   -5.113449|   -5.607499|   -5.607220|   -5.200734|  -13.007268|    2.912745|
|        6723|  1.6805e+00|  7.0240e-11|  2.4824e-03|  1.0000e-03|  1.0000e-03|  1.0000e-03|   -4.982466|   -5.113449|   -5.607520|   -5.607241|   -5.200770|  -13.007280|    2.912695|
|        6724|  1.6805e+00|  7.0239e-11|  2.4824e-03|  1.0000e-03|  1.0000e-03|  1.0000e-03|   -4.982500|   -5.113448|   -5.607542|   -5.607263|   -5.200806|  -13.007292|    2.912644|
|        6725|  1.6805e+00|  7.0238e-11|  2.4824e-03|  1.0000e-03|  1.0000e-03|  1.0000e-03|   -4.982533|   -5.113447|   -5.607563|   -5.607284|   -5.200841|  -13.007304|    2.912594|
|        6726|  1.6804e+00|  7.0237e-11|  2.4824e-03|  1.0000e-03|  1.0000e-03|  1.0000e-03|   -4.982567|   -5.113447|   -5.607585|   -5.607306|   -5.200877|  -13.007316|    2.912544|
|        6727|  1.6804e+00|  7.0237e-11|  2.4824e-03|  1.0000e-03|  1.0000e-03|  1.0000e-03|   -4.982601|   -5.113446|   -5.607607|   -5.607327|   -5.200913|  -13.007328|    2.912494|
|        6728|  1.6804e+00|  7.0236e-11|  2.4824e-03|  1.0000e-03|  1.0000e-03|  1.0000e-03|   -4.982635|   -5.113446|   -5.607628|   -5.607349|   -5.200948|  -13.007339|    2.912444|
|        6729|  1.6804e+00|  7.0235e-11|  2.4824e-03|  1.0000e-03|  1.0000e-03|  1.0000e-03|   -4.982668|   -5.113445|   -5.607650|   -5.607370|   -5.200984|  -13.007351|    2.912394|
|        6730|  1.6804e+00|  7.0235e-11|  2.4824e-03|  1.0000e-03|  1.0000e-03|  1.0000e-03|   -4.982702|   -5.113445|   -5.607671|   -5.607392|   -5.201020|  -13.007363|    2.912344|
|        6731|  1.6804e+00|  7.0234e-11|  2.4824e-03|  1.0000e-03|  1.0000e-03|  1.0000e-03|   -4.982736|   -5.113444|   -5.607693|   -5.607413|   -5.201055|  -13.007375|    2.912294|
|        6732|  1.6804e+00|  7.0233e-11|  2.4824e-03|  1.0000e-03|  1.0000e-03|  1.0000e-03|   -4.982770|   -5.113444|   -5.607714|   -5.607435|   -5.201091|  -13.007386|    2.912245|
|        6733|  1.6803e+00|  7.0233e-11|  2.4824e-03|  1.0000e-03|  1.0000e-03|  1.0000e-03|   -4.982803|   -5.113443|   -5.607736|   -5.607456|   -5.201126|  -13.007398|    2.912195|
|        6734|  1.6803e+00|  7.0232e-11|  2.4824e-03|  1.0000e-03|  1.0000e-03|  1.0000e-03|   -4.982837|   -5.113443|   -5.607757|   -5.607478|   -5.201162|  -13.007410|    2.912145|
|        6735|  1.6803e+00|  7.0231e-11|  2.4824e-03|  1.0000e-03|  1.0000e-03|  1.0000e-03|   -4.982870|   -5.113442|   -5.607779|   -5.607499|   -5.201197|  -13.007421|    2.912096|
|        6736|  1.6803e+00|  7.0231e-11|  2.4824e-03|  1.0000e-03|  1.0000e-03|  1.0000e-03|   -4.982904|   -5.113442|   -5.607800|   -5.607521|   -5.201232|  -13.007433|    2.912047|
|        6737|  1.6803e+00|  7.0230e-11|  2.4824e-03|  1.0000e-03|  1.0000e-03|  1.0000e-03|   -4.982937|   -5.113441|   -5.607822|   -5.607542|   -5.201267|  -13.007444|    2.911997|
|        6738|  1.6803e+00|  7.0229e-11|  2.4824e-03|  1.0000e-03|  1.0000e-03|  1.0000e-03|   -4.982971|   -5.113441|   -5.607843|   -5.607564|   -5.201303|  -13.007456|    2.911948|
|        6739|  1.6802e+00|  7.0229e-11|  2.4824e-03|  1.0000e-03|  1.0000e-03|  1.0000e-03|   -4.983004|   -5.113440|   -5.607864|   -5.607585|   -5.201338|  -13.007468|    2.911899|
|        6740|  1.6802e+00|  7.0228e-11|  2.4824e-03|  1.0000e-03|  1.0000e-03|  1.0000e-03|   -4.983038|   -5.113440|   -5.607886|   -5.607606|   -5.201373|  -13.007479|    2.911850|
|        6741|  1.6802e+00|  7.0227e-11|  2.4824e-03|  1.0000e-03|  1.0000e-03|  1.0000e-03|   -4.983071|   -5.113439|   -5.607907|   -5.607628|   -5.201408|  -13.007491|    2.911801|
|        6742|  1.6802e+00|  7.0226e-11|  2.4824e-03|  1.0000e-03|  1.0000e-03|  1.0000e-03|   -4.983105|   -5.113439|   -5.607929|   -5.607649|   -5.201443|  -13.007502|    2.911752|
|        6743|  1.6802e+00|  7.0226e-11|  2.4824e-03|  1.0000e-03|  1.0000e-03|  1.0000e-03|   -4.983138|   -5.113439|   -5.607950|   -5.607670|   -5.201478|  -13.007513|    2.911703|
|        6744|  1.6802e+00|  7.0225e-11|  2.4824e-03|  1.0000e-03|  1.0000e-03|  1.0000e-03|   -4.983171|   -5.113438|   -5.607971|   -5.607692|   -5.201513|  -13.007525|    2.911654|
|        6745|  1.6801e+00|  7.0224e-11|  2.4824e-03|  1.0000e-03|  1.0000e-03|  1.0000e-03|   -4.983205|   -5.113438|   -5.607993|   -5.607713|   -5.201548|  -13.007536|    2.911605|
|        6746|  1.6801e+00|  7.0224e-11|  2.4824e-03|  1.0000e-03|  1.0000e-03|  1.0000e-03|   -4.983238|   -5.113438|   -5.608014|   -5.607734|   -5.201583|  -13.007547|    2.911557|
|        6747|  1.6801e+00|  7.0223e-11|  2.4824e-03|  1.0000e-03|  1.0000e-03|  1.0000e-03|   -4.983271|   -5.113437|   -5.608035|   -5.607756|   -5.201618|  -13.007559|    2.911508|
|        6748|  1.6801e+00|  7.0222e-11|  2.4824e-03|  1.0000e-03|  1.0000e-03|  1.0000e-03|   -4.983304|   -5.113437|   -5.608056|   -5.607777|   -5.201653|  -13.007570|    2.911460|
|        6749|  1.6801e+00|  7.0222e-11|  2.4824e-03|  1.0000e-03|  1.0000e-03|  1.0000e-03|   -4.983337|   -5.113436|   -5.608078|   -5.607798|   -5.201688|  -13.007581|    2.911411|
|        6750|  1.6801e+00|  7.0221e-11|  2.4824e-03|  1.0000e-03|  1.0000e-03|  1.0000e-03|   -4.983371|   -5.113436|   -5.608099|   -5.607819|   -5.201723|  -13.007593|    2.911363|
+-----------------------------------------------------------------------+
|        File Writing Summary       |              Filename             |
+-----------------------------------------------------------------------+
|SU2 binary restart                 |restart_flow.dat                   |
|Paraview                           |flow.vtu                           |

scontrol show job 1052715
JobId=1052715 JobName=m9_medium
   UserId=anthonyy(3152141) GroupId=anthonyy(3152141) MCS_label=N/A
   Priority=731808 Nice=0 Account=rrg-jphickey QOS=normal
   JobState=CANCELLED Reason=None Dependency=(null)
   Requeue=0 Restarts=0 BatchFlag=1 Reboot=0 ExitCode=0:15
   RunTime=03:12:58 TimeLimit=18:00:00 TimeMin=N/A
   SubmitTime=2026-02-23T23:08:30 EligibleTime=2026-02-23T23:08:30
   AccrueTime=2026-02-23T23:08:30
   StartTime=2026-02-23T23:08:48 EndTime=2026-02-24T02:21:46 Deadline=N/A
   SuspendTime=None SecsPreSuspend=0 LastSchedEval=2026-02-23T23:08:48 Scheduler=Main
   Partition=compute AllocNode:Sid=tri-login06:1803250
   ReqNodeList=(null) ExcNodeList=(null)
   NodeList=tri[0143-0144]
   BatchHost=tri0143
   NumNodes=2 NumCPUs=384 NumTasks=128 CPUs/Task=1 ReqB:S:C:T=0:0:*:*
   ReqTRES=cpu=128,mem=1534000M,node=2,billing=128
   AllocTRES=cpu=384,mem=1534000M,node=2,billing=384
   Socks/Node=* NtasksPerN:B:S:C=64:0:*:* CoreSpec=*
   MinCPUsNode=64 MinMemoryNode=0 MinTmpDiskNode=0
   Features=(null) DelayBoot=00:00:00
   OverSubscribe=NO Contiguous=0 Licenses=(null) Network=(null)
   Command=/scratch/anthonyy/reentry/orion/cases/m9_medium/run.sh
   WorkDir=/scratch/anthonyy/reentry/orion/cases/m9_medium
   Comment=/opt/slurm/bin/sbatch --export=NONE --get-user-env=L run.sh 
   StdErr=/scratch/anthonyy/reentry/orion/cases/m9_medium/orion_1052715.err
   StdIn=/dev/null
   StdOut=/scratch/anthonyy/reentry/orion/cases/m9_medium/orion_1052715.out
   TresPerTask=cpu=1
   

sacct -j 1052715
JobID           JobName    Account    Elapsed  MaxVMSize     MaxRSS  SystemCPU    UserCPU ExitCode 
------------ ---------- ---------- ---------- ---------- ---------- ---------- ---------- -------- 
1052715       m9_medium rrg-jphic+   03:12:58                         01:48:24 16-18:25:+      0:0 
1052715.bat+      batch rrg-jphic+   03:12:59          0     10492K  00:00.153  00:00.587     0:15 
1052715.ext+     extern rrg-jphic+   03:13:03          0          0  00:00.001   00:00:00      0:0 
1052715.0       SU2_CFD rrg-jphic+   03:12:56          0   4706464K   01:48:24 16-18:25:+     0:15 

