Nodes:  tri[0739,0741]
Tasks:  128
NPN:    64
Config: /scratch/anthonyy/reentry/orion/config/generated/m1.5_medium.cfg

-------------------------------------------------------------------------
|    ___ _   _ ___                                                      |
|   / __| | | |_  )   Release 7.5.1 "Blackbird"                         |
|   \__ \ |_| |/ /                                                      |
|   |___/\___//___|   Suite (Computational Fluid Dynamics Code)         |
|                                                                       |
-------------------------------------------------------------------------
| SU2 Project Website: https://su2code.github.io                        |
|                                                                       |
| The SU2 Project is maintained by the SU2 Foundation                   |
| (http://su2foundation.org)                                            |
-------------------------------------------------------------------------
| Copyright 2012-2023, SU2 Contributors                                 |
|                                                                       |
| SU2 is free software; you can redistribute it and/or                  |
| modify it under the terms of the GNU Lesser General Public            |
| License as published by the Free Software Foundation; either          |
| version 2.1 of the License, or (at your option) any later version.    |
|                                                                       |
| SU2 is distributed in the hope that it will be useful,                |
| but WITHOUT ANY WARRANTY; without even the implied warranty of        |
| MERCHANTABILITY or FITNESS FOR A PARTICULAR PURPOSE. See the GNU      |
| Lesser General Public License for more details.                       |
|                                                                       |
| You should have received a copy of the GNU Lesser General Public      |
| License along with SU2. If not, see <http://www.gnu.org/licenses/>.   |
-------------------------------------------------------------------------

Parsing config file for zone 0

----------------- Physical Case Definition ( Zone 0 ) -------------------
Compressible RANS equations.
Turbulence model: Spalart-Allmaras-noft2
Hybrid RANS/LES: No Hybrid RANS/LES
Mach number: 1.5.
Angle of attack (AoA): 0 deg, and angle of sideslip (AoS): 0 deg.
Reynolds number: 1.71557e+08. Reference length 5.
No restart solution, use the values at infinity (freestream).
Non-Dimensional simulation (V=1.0, Rho=1.0, T=1.0 at the farfield).
The reference area will be computed using y(2D) or z(3D) projection.
The semi-span will be computed using the max y(3D) value.
The reference length is 0.64607 m.
Reference origin for moment evaluation is (0.25, 0, 0).
Surface(s) where the force coefficients are evaluated: ORION_SURFACE.

Input mesh file name: ../../mesh/medium.su2

--------------- Space Numerical Integration ( Zone 0 ) ------------------
Jameson-Schmidt-Turkel scheme (2nd order in space) for the flow inviscid terms.
JST viscous coefficients (2nd & 4th): 0.5, 0.02.
The method includes a grid stretching correction (p = 0.3).
Scalar upwind solver for the turbulence model.
First order integration in space.
Average of gradients with correction (viscous flow terms).
Average of gradients with correction (viscous turbulence terms).
Gradient for upwind reconstruction: Green-Gauss.
Gradient for viscous and source terms: Green-Gauss.

--------------- Time Numerical Integration  ( Zone 0 ) ------------------
Local time stepping (steady state simulation).
Euler implicit method for the flow equations.
FGMRES is used for solving the linear system.
Using a ILU(0) preconditioning.
Convergence criteria of the linear solver: 1e-06.
Max number of linear iterations: 100.
CFL adaptation. Factor down: 0.5, factor up: 1.2,
                lower limit: 0.1, upper limit: 3,
                acceptable linear residual: 0.001.
Courant-Friedrichs-Lewy number:        1
Euler implicit time integration for the turbulence model.

------------------ Convergence Criteria  ( Zone 0 ) ---------------------
Maximum number of solver subiterations: 999999.
Begin convergence monitoring at iteration 5.
Residual minimum value: 1e-8.
Cauchy series min. value: 1e-10.
Number of Cauchy elements: 100.
Begin windowed time average at iteration 0.

-------------------- Output Information ( Zone 0 ) ----------------------
File writing frequency: 
+------------------------------------+
|                     File| Frequency|
+------------------------------------+
|                  RESTART|       150|
|                 PARAVIEW|       150|
|         SURFACE_PARAVIEW|       150|
+------------------------------------+
Writing the convergence history file every 1 inner iterations.
Writing the screen convergence history every 1 inner iterations.
The tabular file format is CSV (.csv).
Convergence history file name: history.
Forces breakdown file name: forces_breakdown.dat.
Surface file name: surface_flow.
Volume file name: flow.
Restart file name: restart_flow.

------------- Config File Boundary Information ( Zone 0 ) ---------------
+-----------------------------------------------------------------------+
|                        Marker Type|                        Marker Name|
+-----------------------------------------------------------------------+
|                          Far-field|                           FARFIELD|
+-----------------------------------------------------------------------+
|                     Heat flux wall|                      ORION_SURFACE|
+-----------------------------------------------------------------------+

-------------------- Output Preprocessing ( Zone 0 ) --------------------

WARNING: SURFACE_PRESSURE_DROP can only be computed for at least 2 surfaces (outlet, inlet, ...)

Screen output fields: INNER_ITER, WALL_TIME, RMS_DENSITY, RMS_MOMENTUM-X, RMS_MOMENTUM-Y, RMS_MOMENTUM-Z, RMS_ENERGY, RMS_NU_TILDE, DRAG
History output group(s): ITER, RMS_RES
Convergence field(s): RMS_DENSITY
Warning: No (valid) fields chosen for time convergence monitoring. Time convergence monitoring inactive.
Volume output fields: MACH, PRESSURE, TEMPERATURE, DENSITY, HEAT_FLUX, Y_PLUS, COORDINATES, SOLUTION

------------------- Geometry Preprocessing ( Zone 0 ) -------------------
Three dimensional problem.
26648118 grid points before partitioning.
74775078 volume elements before partitioning.
2 surface markers.
1778 boundary elements in index 0 (Marker = FARFIELD).
811194 boundary elements in index 1 (Marker = ORION_SURFACE).
Executing the partitioning functions.
Building the graph adjacency structure.
Calling ParMETIS... graph partitioning complete (2763415 edge cuts).
Distributing ParMETIS coloring.
Rebalancing vertices.
Rebalancing volume element connectivity.
Rebalancing markers and surface elements.
29624692 vertices including ghost points. 
78760198 interior elements including halo cells. 
33893606 tetrahedra.
44681610 prisms.
184982 pyramids.
Establishing MPI communication patterns.
Setting point connectivity.
Renumbering points (Reverse Cuthill McKee Ordering).
Recomputing point connectivity.
Setting element connectivity.
Checking the numerical grid orientation.
All volume elements are correctly orientend.
All surface elements are correctly orientend.
Identifying edges and vertices.
Setting the control volume structure.
Volume of the computational grid: 535139.
Searching for the closest normal neighbors to the surfaces.
Storing a mapping from global to local point index.
Compute the surface curvature.
Max K: 137.039. Mean K: 3.89106. Standard deviation K: 7.38179.
Checking for periodicity.
Computing mesh quality statistics for the dual control volumes.
+--------------------------------------------------------------+
|           Mesh Quality Metric|        Minimum|        Maximum|
+--------------------------------------------------------------+
|    Orthogonality Angle (deg.)|        54.3699|             90|
|     CV Face Area Aspect Ratio|        1.00113|         100241|
|           CV Sub-Volume Ratio|         1.0025|        34.9431|
+--------------------------------------------------------------+
Finding max control volume width.
Communicating number of neighbors.
Reference area = 11.5308 m^2.
Semi-span length = 2.49998 m.
Wetted area = 57.9043 m^2.
Area projection in the x-plane = 19.6335 m^2, y-plane = 11.5309 m^2, z-plane = 11.5308 m^2.
Max. coordinate in the x-direction = 2.575 m, y-direction = 2.49998 m, z-direction = 2.5 m.
Min. coordinate in the x-direction = -0.71 m, y-direction = -2.49999 m, z-direction = -2.49999 m.
Computing wall distances.

-------------------- Solver Preprocessing ( Zone 0 ) --------------------
Viscous flow: Computing pressure using the ideal gas law
based on the free-stream temperature and a density computed
from the Reynolds number.
Force coefficients computed using free-stream values.

-- Models:
+------------------------------------------------------------------------------+
|          Viscosity Model|        Conductivity Model|              Fluid Model|
+------------------------------------------------------------------------------+
|               SUTHERLAND|          CONSTANT_PRANDTL|             STANDARD_AIR|
+------------------------------------------------------------------------------+
-- Fluid properties:
+------------------------------------------------------------------------------+
|                  Name|    Dim. value|    Ref. value|      Unit|Non-dim. value|
+------------------------------------------------------------------------------+
|        Ref. Viscosity|     1.716e-05|       613.934|   N.s/m^2|   2.79509e-08|
|      Sutherland Temp.|        273.15|        288.15|         K|      0.947944|
|     Sutherland Const.|         110.4|        288.15|         K|      0.383134|
+------------------------------------------------------------------------------+
|        Prandtl (Lam.)|             -|             -|         -|          0.72|
|       Prandtl (Turb.)|             -|             -|         -|           0.9|
+------------------------------------------------------------------------------+
|          Gas Constant|       287.058|       904.233|  N.m/kg.K|       0.31746|
|      Spec. Heat Ratio|             -|             -|         -|           1.4|
+------------------------------------------------------------------------------+
-- Initial and free-stream conditions:
+------------------------------------------------------------------------------+
|                  Name|    Dim. value|    Ref. value|      Unit|Non-dim. value|
+------------------------------------------------------------------------------+
|       Static Pressure|       99485.6|        313380|        Pa|       0.31746|
|               Density|       1.20274|       1.20274|    kg/m^3|             1|
|           Temperature|        288.15|        288.15|         K|             1|
|          Total Energy|        337067|        260555|   m^2/s^2|       1.29365|
|            Velocity-X|       510.446|       510.446|       m/s|             1|
|            Velocity-Y|             0|       510.446|       m/s|             0|
|            Velocity-Z|             0|       510.446|       m/s|             0|
|    Velocity Magnitude|       510.446|       510.446|       m/s|             1|
+------------------------------------------------------------------------------+
|             Viscosity|    1.7893e-05|       613.934|   N.s/m^2|   2.91448e-08|
|          Conductivity|             -|        555139|   W/m^2.K|             -|
|     Turb. Kin. Energy|        977.08|        260555|   m^2/s^2|       0.00375|
|     Spec. Dissipation|   6.56779e+06|       510.446|       1/s|       12866.8|
+------------------------------------------------------------------------------+
|           Mach Number|             -|             -|         -|           1.5|
|       Reynolds Number|             -|             -|         -|   1.71557e+08|
+------------------------------------------------------------------------------+
Initialize Jacobian structure (Navier-Stokes). MG level: 0.
Initialize Jacobian structure (SA model).

------------------- Numerics Preprocessing ( Zone 0 ) -------------------

----------------- Integration Preprocessing ( Zone 0 ) ------------------

------------------- Iteration Preprocessing ( Zone 0 ) ------------------
Euler/Navier-Stokes/RANS fluid iteration.

------------------------------ Begin Solver -----------------------------

Simulation Run using the Single-zone Driver
WARNING: SU2 was not compiled for an AVX-capable architecture. Performance could be better,
         see https://su2code.github.io/docs_v7/Build-SU2-Linux-MacOS/#compiler-optimizations
+--------------------------------------------------------------------------------------------------------------------+
|  Inner_Iter|   Time(sec)|    rms[Rho]|   rms[RhoU]|   rms[RhoV]|   rms[RhoW]|   rms[RhoE]|     rms[nu]|          CD|
+--------------------------------------------------------------------------------------------------------------------+
|           0|  2.9299e+00|   -4.889437|  -15.721351|  -16.362501|  -16.357569|   -4.682312|  -11.934480|    1.193516|
|           1|  2.8738e+00|   -5.041121|   -5.082557|   -6.147589|   -6.147250|   -4.836509|  -11.932119|    1.788013|
|           2|  2.9169e+00|   -5.043498|   -5.131422|   -6.114797|   -6.114354|   -4.830366|  -12.218052|    2.422830|
|           3|  2.9772e+00|   -5.046033|   -5.195044|   -6.022874|   -6.022426|   -4.823278|  -12.341341|    3.112656|
|           4|  3.0127e+00|   -5.051641|   -5.273208|   -5.926756|   -5.926337|   -4.819338|  -12.448972|    3.877242|
|           5|  3.0411e+00|   -5.065941|   -5.352079|   -5.842980|   -5.842588|   -4.825759|  -12.513629|    4.640979|
|           6|  3.0723e+00|   -5.097230|   -5.388349|   -5.774705|   -5.774337|   -4.854495|  -12.538793|    5.401909|
|           7|  3.1196e+00|   -5.149802|   -5.349599|   -5.715453|   -5.715115|   -4.912576|  -12.541626|    6.035870|
|           8|  3.1514e+00|   -5.194710|   -5.277870|   -5.672546|   -5.672226|   -4.969700|  -12.534134|    6.339321|
|           9|  3.1495e+00|   -5.169259|   -5.233165|   -5.641861|   -5.641546|   -4.934100|  -12.504983|    6.102094|
|          10|  3.1441e+00|   -5.094775|   -5.245038|   -5.617475|   -5.617157|   -4.832524|  -12.494798|    5.369824|
|          11|  3.1385e+00|   -5.048438|   -5.309908|   -5.592639|   -5.592354|   -4.772430|  -12.494995|    4.514802|
|          12|  3.1337e+00|   -5.053652|   -5.359635|   -5.579073|   -5.578807|   -4.775620|  -12.446735|    3.949272|
|          13|  3.1316e+00|   -5.091158|   -5.336590|   -5.578742|   -5.578477|   -4.820411|  -12.405709|    3.760361|
|          14|  3.1255e+00|   -5.127234|   -5.289029|   -5.586165|   -5.585895|   -4.869888|  -12.398225|    3.874983|
|          15|  3.1324e+00|   -5.135552|   -5.291996|   -5.601822|   -5.601554|   -4.880682|  -12.394949|    4.150333|
|          16|  3.1294e+00|   -5.128141|   -5.347310|   -5.621092|   -5.620821|   -4.867074|  -12.381915|    4.447530|
|          17|  3.1294e+00|   -5.129065|   -5.392979|   -5.627762|   -5.627482|   -4.867517|  -12.355154|    4.680277|
|          18|  3.1258e+00|   -5.139545|   -5.367731|   -5.622762|   -5.622480|   -4.884192|  -12.334905|    4.821226|
|          19|  3.1226e+00|   -5.145647|   -5.334299|   -5.615864|   -5.615585|   -4.893411|  -12.328392|    4.891431|
|          20|  3.1191e+00|   -5.140515|   -5.344789|   -5.621931|   -5.621656|   -4.884879|  -12.321893|    4.931717|
|          21|  3.1175e+00|   -5.136562|   -5.387693|   -5.629643|   -5.629366|   -4.878145|  -12.313438|    4.972166|
|          22|  3.1159e+00|   -5.137832|   -5.396113|   -5.625783|   -5.625510|   -4.881033|  -12.294628|    5.020228|
|          23|  3.1162e+00|   -5.141363|   -5.358308|   -5.614846|   -5.614561|   -4.888215|  -12.281892|    5.067658|
|          24|  3.1153e+00|   -5.140054|   -5.335893|   -5.610440|   -5.610167|   -4.886219|  -12.275621|    5.103338|
|          25|  3.1137e+00|   -5.132573|   -5.351657|   -5.616150|   -5.615882|   -4.874341|  -12.270970|    5.122480|
|          26|  3.1126e+00|   -5.128184|   -5.382078|   -5.617842|   -5.617559|   -4.867738|  -12.265481|    5.128677|
|          27|  3.1116e+00|   -5.130929|   -5.378056|   -5.612900|   -5.612621|   -4.872406|  -12.252511|    5.130067|
|          28|  3.1112e+00|   -5.132387|   -5.344802|   -5.603075|   -5.602783|   -4.876428|  -12.242492|    5.133809|
|          29|  3.1093e+00|   -5.130117|   -5.331403|   -5.602338|   -5.602056|   -4.873185|  -12.235403|    5.142802|
|          30|  3.1075e+00|   -5.123019|   -5.347308|   -5.606712|   -5.606429|   -4.862368|  -12.234830|    5.155802|
|          31|  3.1058e+00|   -5.120605|   -5.367938|   -5.606784|   -5.606518|   -4.858750|  -12.229275|    5.169602|
|          32|  3.1059e+00|   -5.123324|   -5.358703|   -5.600977|   -5.600682|   -4.863114|  -12.224094|    5.181391|
|          33|  3.1041e+00|   -5.124042|   -5.332131|   -5.594581|   -5.594295|   -4.865857|  -12.214033|    5.190090|
|          34|  3.1099e+00|   -5.121423|   -5.324372|   -5.596343|   -5.596050|   -4.862141|  -12.207766|    5.196377|
|          35|  3.1092e+00|   -5.115011|   -5.336313|   -5.598519|   -5.598238|   -4.852932|  -12.209587|    5.201819|
|          36|  3.1081e+00|   -5.114240|   -5.347474|   -5.597879|   -5.597591|   -4.851707|  -12.203518|    5.207801|
|          37|  3.1071e+00|   -5.115530|   -5.334530|   -5.591663|   -5.591341|   -4.854044|  -12.204022|    5.214866|
|          38|  3.1059e+00|   -5.115678|   -5.312912|   -5.588625|   -5.588322|   -4.855700|  -12.192439|    5.222680|
|          39|  3.1046e+00|   -5.111869|   -5.303971|   -5.590109|   -5.589813|   -4.850486|  -12.188268|    5.230456|
|          40|  3.1074e+00|   -5.106263|   -5.304824|   -5.590824|   -5.590544|   -4.842822|  -12.187983|    5.237501|
|          41|  3.1097e+00|   -5.104658|   -5.300676|   -5.587960|   -5.587675|   -4.840628|  -12.181347|    5.243550|
|          42|  3.1124e+00|   -5.102928|   -5.279051|   -5.581481|   -5.581186|   -4.838988|  -12.181001|    5.248781|
|          43|  3.1159e+00|   -5.100166|   -5.252800|   -5.578356|   -5.578090|   -4.836627|  -12.167110|    5.253588|
|          44|  3.1177e+00|   -5.092737|   -5.231003|   -5.575287|   -5.575035|   -4.827292|  -12.160925|    5.258308|
|          45|  3.1203e+00|   -5.084668|   -5.211780|   -5.571212|   -5.570987|   -4.817391|  -12.154575|    5.263060|
|          46|  3.1230e+00|   -5.077915|   -5.188445|   -5.562041|   -5.561828|   -4.809494|  -12.144301|    5.267754|
|          47|  3.1244e+00|   -5.070138|   -5.157544|   -5.551437|   -5.551258|   -4.801108|  -12.137466|    5.272217|
|          48|  3.1269e+00|   -5.061091|   -5.125705|   -5.541738|   -5.541613|   -4.791880|  -12.121251|    5.276320|
|          49|  3.1287e+00|   -5.048486|   -5.096094|   -5.529904|   -5.529818|   -4.778110|  -12.109259|    5.280046|
|          50|  3.1304e+00|   -5.035422|   -5.068716|   -5.516356|   -5.516331|   -4.764325|  -12.097646|    5.283469|
|          51|  3.1320e+00|   -5.022876|   -5.041851|   -5.499054|   -5.499091|   -4.751663|  -12.083405|    5.286694|
|          52|  3.1379e+00|   -5.009863|   -5.014193|   -5.481946|   -5.482048|   -4.739036|  -12.071768|    5.289794|
|          53|  3.1393e+00|   -4.996509|   -4.987799|   -5.464697|   -5.464898|   -4.726660|  -12.056564|    5.292784|
|          54|  3.1407e+00|   -4.982256|   -4.963828|   -5.447191|   -5.447441|   -4.713172|  -12.042294|    5.295638|
|          55|  3.1453e+00|   -4.967897|   -4.942302|   -5.428832|   -5.429170|   -4.699773|  -12.031145|    5.298321|
|          56|  3.1467e+00|   -4.955042|   -4.922992|   -5.410412|   -5.410800|   -4.688364|  -12.017565|    5.300814|
|          57|  3.1481e+00|   -4.942520|   -4.904684|   -5.393208|   -5.393669|   -4.677382|  -12.007505|    5.303126|
|          58|  3.1500e+00|   -4.930908|   -4.887937|   -5.376779|   -5.377289|   -4.667801|  -11.996424|    5.305283|
|          59|  3.1519e+00|   -4.919819|   -4.873276|   -5.361661|   -5.362212|   -4.658560|  -11.985314|    5.307312|
|          60|  3.1542e+00|   -4.908960|   -4.860639|   -5.346768|   -5.347355|   -4.649429|  -11.978269|    5.309233|
|          61|  3.1585e+00|   -4.900060|   -4.850219|   -5.333569|   -5.334189|   -4.642589|  -11.968687|    5.311047|
|          62|  3.1629e+00|   -4.891694|   -4.840864|   -5.321566|   -5.322214|   -4.636072|  -11.963266|    5.312751|
|          63|  3.1669e+00|   -4.884761|   -4.832748|   -5.310858|   -5.311535|   -4.631477|  -11.956772|    5.314337|
|          64|  3.1704e+00|   -4.878371|   -4.826140|   -5.301291|   -5.301977|   -4.627123|  -11.950420|    5.315802|
|          65|  3.1716e+00|   -4.872299|   -4.821006|   -5.292422|   -5.293123|   -4.622903|  -11.947224|    5.317150|
|          66|  3.1730e+00|   -4.867771|   -4.817597|   -5.285074|   -5.285767|   -4.620434|  -11.941698|    5.318392|
|          67|  3.1743e+00|   -4.863621|   -4.814880|   -5.278517|   -5.279207|   -4.618042|  -11.939966|    5.319535|
|          68|  3.1759e+00|   -4.860800|   -4.812939|   -5.273216|   -5.273871|   -4.617504|  -11.936764|    5.320587|
|          69|  3.1767e+00|   -4.858162|   -4.811943|   -5.268503|   -5.269138|   -4.616753|  -11.933742|    5.321552|
|          70|  3.1775e+00|   -4.855719|   -4.811883|   -5.264590|   -5.265174|   -4.616046|  -11.932902|    5.322431|
|          71|  3.1787e+00|   -4.854313|   -4.813019|   -5.261611|   -5.262166|   -4.616484|  -11.929881|    5.323222|
|          72|  3.1804e+00|   -4.853054|   -4.814411|   -5.259068|   -5.259566|   -4.616717|  -11.930041|    5.323929|
|          73|  3.1813e+00|   -4.852818|   -4.816114|   -5.257331|   -5.257778|   -4.618426|  -11.928832|    5.324552|
|          74|  3.1828e+00|   -4.852604|   -4.818340|   -5.255705|   -5.256104|   -4.619641|  -11.927463|    5.325097|
|          75|  3.1838e+00|   -4.852455|   -4.821028|   -5.254597|   -5.254945|   -4.620663|  -11.928257|    5.325568|
|          76|  3.1842e+00|   -4.853232|   -4.824555|   -5.253796|   -5.254107|   -4.622678|  -11.926666|    5.325969|
|          77|  3.1852e+00|   -4.853909|   -4.827950|   -5.253024|   -5.253281|   -4.624137|  -11.928042|    5.326302|
|          78|  3.1868e+00|   -4.855399|   -4.831379|   -5.252593|   -5.252806|   -4.626886|  -11.927937|    5.326572|
|          79|  3.1878e+00|   -4.856634|   -4.835019|   -5.252006|   -5.252166|   -4.628876|  -11.927277|    5.326779|
|          80|  3.1889e+00|   -4.857560|   -4.838713|   -5.251701|   -5.251806|   -4.630335|  -11.929059|    5.326925|
|          81|  3.1905e+00|   -4.859285|   -4.843100|   -5.251480|   -5.251546|   -4.632814|  -11.927965|    5.327013|
|          82|  3.1912e+00|   -4.860521|   -4.847071|   -5.251216|   -5.251229|   -4.634272|  -11.930229|    5.327046|
|          83|  3.1921e+00|   -4.862564|   -4.851012|   -5.251097|   -5.251078|   -4.637155|  -11.930900|    5.327025|
|          84|  3.1930e+00|   -4.864184|   -4.854941|   -5.250782|   -5.250725|   -4.639100|  -11.931176|    5.326952|
|          85|  3.1936e+00|   -4.865414|   -4.858729|   -5.250559|   -5.250468|   -4.640502|  -11.933873|    5.326830|
|          86|  3.1945e+00|   -4.867309|   -4.863179|   -5.250296|   -5.250178|   -4.642842|  -11.933478|    5.326660|
|          87|  3.1955e+00|   -4.868487|   -4.867106|   -5.249964|   -5.249790|   -4.643908|  -11.936417|    5.326442|
|          88|  3.1962e+00|   -4.870426|   -4.871047|   -5.249681|   -5.249486|   -4.646450|  -11.937455|    5.326179|
|          89|  3.1967e+00|   -4.871807|   -4.874849|   -5.249274|   -5.249037|   -4.647936|  -11.938110|    5.325873|
|          90|  3.1972e+00|   -4.872870|   -4.878494|   -5.248936|   -5.248680|   -4.649047|  -11.940714|    5.325523|
|          91|  3.1963e+00|   -4.874443|   -4.882773|   -5.248572|   -5.248298|   -4.650925|  -11.940198|    5.325131|
|          92|  3.1949e+00|   -4.875312|   -4.886561|   -5.248180|   -5.247865|   -4.651560|  -11.942345|    5.324697|
|          93|  3.1935e+00|   -4.876780|   -4.890276|   -5.247795|   -5.247479|   -4.653469|  -11.942792|    5.324221|
|          94|  3.1923e+00|   -4.877715|   -4.893747|   -5.247390|   -5.247042|   -4.654462|  -11.942297|    5.323703|
|          95|  3.1908e+00|   -4.878188|   -4.896908|   -5.247044|   -5.246706|   -4.654921|  -11.943650|    5.323142|
|          96|  3.1891e+00|   -4.878994|   -4.900572|   -5.246788|   -5.246450|   -4.656044|  -11.942003|    5.322536|
|          97|  3.1876e+00|   -4.879012|   -4.903708|   -5.246584|   -5.246225|   -4.655890|  -11.942317|    5.321883|
|          98|  3.1863e+00|   -4.879341|   -4.906526|   -5.246394|   -5.246058|   -4.656675|  -11.941915|    5.321182|
|          99|  3.1853e+00|   -4.879290|   -4.909059|   -5.246302|   -5.245952|   -4.656942|  -11.939822|    5.320430|
|         100|  3.1842e+00|   -4.878492|   -4.911041|   -5.246185|   -5.245857|   -4.656247|  -11.939988|    5.319624|
|         101|  3.1702e+00|   -4.877993|   -4.913428|   -5.246188|   -5.245880|   -4.656294|  -11.940450|    5.319607|
|         102|  3.1563e+00|   -4.877160|   -4.913394|   -5.245864|   -5.245556|   -4.655328|  -11.939297|    5.319586|
|         103|  3.1443e+00|   -4.876183|   -4.913343|   -5.245476|   -5.245168|   -4.654200|  -11.937917|    5.319560|
|         104|  3.1325e+00|   -4.875048|   -4.913264|   -5.245014|   -5.244706|   -4.652894|  -11.936269|    5.319529|
|         105|  3.1211e+00|   -4.873741|   -4.913141|   -5.244465|   -5.244157|   -4.651401|  -11.934322|    5.319490|
|         106|  3.1095e+00|   -4.872259|   -4.912951|   -5.243813|   -5.243506|   -4.649723|  -11.932065|    5.319443|
|         107|  3.0986e+00|   -4.870616|   -4.912656|   -5.243044|   -5.242738|   -4.647889|  -11.929529|    5.319385|
|         108|  3.0894e+00|   -4.868850|   -4.912206|   -5.242142|   -5.241838|   -4.645960|  -11.926797|    5.319313|
|         109|  3.0801e+00|   -4.867034|   -4.911532|   -5.241094|   -5.240794|   -4.644056|  -11.924062|    5.319223|
|         110|  3.0710e+00|   -4.865291|   -4.910554|   -5.239897|   -5.239601|   -4.642357|  -11.921666|    5.319111|
|         111|  3.0633e+00|   -4.863771|   -4.909197|   -5.238558|   -5.238268|   -4.641078|  -11.919901|    5.318970|
|         112|  3.0558e+00|   -4.862582|   -4.907411|   -5.237097|   -5.236813|   -4.640330|  -11.918698|    5.318793|
|         113|  3.0487e+00|   -4.861636|   -4.905202|   -5.235543|   -5.235259|   -4.639853|  -11.917443|    5.318568|
|         114|  3.0431e+00|   -4.860455|   -4.902694|   -5.233906|   -5.233620|   -4.638698|  -11.914788|    5.318281|
|         115|  3.0376e+00|   -4.858162|   -4.900327|   -5.232153|   -5.231867|   -4.635359|  -11.910477|    5.317915|
|         116|  3.0335e+00|   -4.853901|   -4.899145|   -5.230237|   -5.229963|   -4.628826|  -11.906343|    5.317444|
|         117|  3.0310e+00|   -4.847641|   -4.899989|   -5.228235|   -5.227975|   -4.619584|  -11.904342|    5.316837|
|         118|  3.0286e+00|   -4.841698|   -4.902288|   -5.227030|   -5.226760|   -4.611159|  -11.904825|    5.316053|
|         119|  3.0276e+00|   -4.838645|   -4.905422|   -5.227875|   -5.227595|   -4.607085|  -11.908154|    5.315038|
|         120|  3.0268e+00|   -4.840368|   -4.909743|   -5.230973|   -5.230725|   -4.610015|  -11.914282|    5.313809|
|         121|  3.0256e+00|   -4.846106|   -4.914325|   -5.235184|   -5.234969|   -4.619091|  -11.919472|    5.312508|
|         122|  3.0242e+00|   -4.851604|   -4.916783|   -5.239491|   -5.239239|   -4.627945|  -11.921284|    5.311129|
|         123|  3.0230e+00|   -4.855278|   -4.917314|   -5.243100|   -5.242821|   -4.634155|  -11.921453|    5.309665|
|         124|  3.0216e+00|   -4.856812|   -4.917263|   -5.245038|   -5.244794|   -4.637505|  -11.920146|    5.308110|
|         125|  3.0203e+00|   -4.855825|   -4.918181|   -5.246075|   -5.245853|   -4.637242|  -11.915131|    5.306463|
|         126|  3.0192e+00|   -4.852744|   -4.919651|   -5.247039|   -5.246799|   -4.633639|  -11.910424|    5.304726|
|         127|  3.0180e+00|   -4.850061|   -4.920519|   -5.247708|   -5.247494|   -4.631126|  -11.907863|    5.302910|
|         128|  3.0171e+00|   -4.848354|   -4.920285|   -5.248062|   -5.247881|   -4.630740|  -11.904235|    5.301036|
|         129|  3.0158e+00|   -4.846131|   -4.918714|   -5.248473|   -5.248294|   -4.629610|  -11.901148|    5.299140|
|         130|  3.0148e+00|   -4.843322|   -4.917374|   -5.248630|   -5.248495|   -4.627583|  -11.897730|    5.297277|
|         131|  3.0138e+00|   -4.839625|   -4.917353|   -5.248752|   -5.248663|   -4.623993|  -11.892737|    5.295515|
|         132|  3.0128e+00|   -4.835449|   -4.917416|   -5.249149|   -5.249092|   -4.619358|  -11.889572|    5.293933|
|         133|  3.0118e+00|   -4.832344|   -4.916815|   -5.249457|   -5.249467|   -4.616539|  -11.886567|    5.292609|
|         134|  3.0109e+00|   -4.829658|   -4.915481|   -5.249467|   -5.249549|   -4.614537|  -11.882671|    5.291598|
|         135|  3.0086e+00|   -4.826758|   -4.913247|   -5.249575|   -5.249706|   -4.612179|  -11.880275|    5.290909|
|         136|  3.0066e+00|   -4.824148|   -4.911381|   -5.249462|   -5.249655|   -4.610280|  -11.876054|    5.290487|
|         137|  3.0046e+00|   -4.820454|   -4.910449|   -5.248978|   -5.249219|   -4.606523|  -11.870820|    5.290196|
|         138|  3.0027e+00|   -4.816169|   -4.909776|   -5.248591|   -5.248855|   -4.601771|  -11.868120|    5.289814|
|         139|  3.0010e+00|   -4.813114|   -4.908615|   -5.248087|   -5.248375|   -4.599016|  -11.864466|    5.289050|
|         140|  2.9991e+00|   -4.810217|   -4.906719|   -5.246962|   -5.247266|   -4.596420|  -11.859452|    5.287566|
|         141|  2.9970e+00|   -4.806825|   -4.904448|   -5.245883|   -5.246188|   -4.593174|  -11.857453|    5.285025|
|         142|  2.9954e+00|   -4.804256|   -4.902411|   -5.244910|   -5.245228|   -4.591412|  -11.854214|    5.281134|
|         143|  2.9935e+00|   -4.801183|   -4.900298|   -5.243151|   -5.243486|   -4.588520|  -11.847781|    5.275694|
|         144|  2.9917e+00|   -4.796805|   -4.898355|   -5.240908|   -5.241260|   -4.583406|  -11.843907|    5.268634|
|         145|  2.9899e+00|   -4.792956|   -4.896876|   -5.238883|   -5.239272|   -4.579618|  -11.841912|    5.260037|
|         146|  2.9881e+00|   -4.789946|   -4.894788|   -5.236412|   -5.236862|   -4.577162|  -11.836378|    5.250142|
|         147|  2.9862e+00|   -4.786142|   -4.891234|   -5.232926|   -5.233438|   -4.572932|  -11.830477|    5.239319|
|         148|  2.9842e+00|   -4.782269|   -4.887738|   -5.229357|   -5.229923|   -4.568856|  -11.827865|    5.228027|
|         149|  2.9825e+00|   -4.779217|   -4.884812|   -5.225996|   -5.226628|   -4.566687|  -11.823914|    5.216760|
|         150|  2.9808e+00|   -4.775539|   -4.880902|   -5.221856|   -5.222574|   -4.563280|  -11.816126|    5.205982|
+-----------------------------------------------------------------------+
|        File Writing Summary       |              Filename             |
+-----------------------------------------------------------------------+
|SU2 binary restart                 |restart_flow.dat                   |
|Paraview                           |flow.vtu                           |
|Paraview surface                   |surface_flow.vtu                   |
+-----------------------------------------------------------------------+
+--------------------------------------------------------------------------------------------------------------------+
|  Inner_Iter|   Time(sec)|    rms[Rho]|   rms[RhoU]|   rms[RhoV]|   rms[RhoW]|   rms[RhoE]|     rms[nu]|          CD|
+--------------------------------------------------------------------------------------------------------------------+
|         151|  3.0502e+00|   -4.770449|   -4.875944|   -5.216477|   -5.217280|   -4.557398|  -11.809285|    5.196072|
|         152|  3.0487e+00|   -4.765013|   -4.871358|   -5.210188|   -5.211059|   -4.551845|  -11.804191|    5.187294|
|         153|  3.0471e+00|   -4.759110|   -4.866506|   -5.202696|   -5.203630|   -4.546418|  -11.796590|    5.179773|
|         154|  3.0459e+00|   -4.751417|   -4.859264|   -5.193254|   -5.194243|   -4.538032|  -11.785843|    5.173506|
|         155|  3.0442e+00|   -4.741967|   -4.849589|   -5.181858|   -5.182877|   -4.526853|  -11.775616|    5.168372|
|         156|  3.0425e+00|   -4.731683|   -4.838766|   -5.168918|   -5.169927|   -4.515242|  -11.765831|    5.164161|
|         157|  3.0407e+00|   -4.720487|   -4.826561|   -5.154434|   -5.155430|   -4.503004|  -11.753727|    5.160606|
|         158|  3.0387e+00|   -4.707518|   -4.812048|   -5.138123|   -5.139141|   -4.488260|  -11.739469|    5.157419|
|         159|  3.0368e+00|   -4.692525|   -4.795377|   -5.119924|   -5.120993|   -4.470758|  -11.724895|    5.154332|
|         160|  3.0349e+00|   -4.675977|   -4.777136|   -5.099900|   -5.101051|   -4.451600|  -11.709482|    5.151121|
|         161|  3.0332e+00|   -4.658081|   -4.757141|   -5.078083|   -5.079345|   -4.431074|  -11.692112|    5.147628|
|         162|  3.0314e+00|   -4.638723|   -4.735109|   -5.054596|   -5.055971|   -4.408931|  -11.673385|    5.143759|
|         163|  3.0297e+00|   -4.617922|   -4.711520|   -5.029769|   -5.031202|   -4.385340|  -11.653853|    5.139482|
|         164|  3.0278e+00|   -4.595874|   -4.686919|   -5.003963|   -5.005360|   -4.360643|  -11.633116|    5.134807|
|         165|  3.0259e+00|   -4.572780|   -4.661440|   -4.977395|   -4.978708|   -4.335080|  -11.611240|    5.129776|
|         166|  3.0240e+00|   -4.548884|   -4.635267|   -4.950240|   -4.951482|   -4.309027|  -11.588748|    5.124444|
|         167|  3.0220e+00|   -4.524416|   -4.608692|   -4.922657|   -4.923861|   -4.282800|  -11.565628|    5.118874|
|         168|  3.0145e+00|   -4.499478|   -4.581878|   -4.894811|   -4.895928|   -4.256450|  -11.572855|    5.118693|
|         169|  3.0070e+00|   -4.498192|   -4.581004|   -4.893748|   -4.894857|   -4.255224|  -11.571097|    5.118475|
|         170|  3.0004e+00|   -4.496665|   -4.579949|   -4.892473|   -4.893573|   -4.253769|  -11.569009|    5.118213|
|         171|  2.9942e+00|   -4.494853|   -4.578675|   -4.890944|   -4.892032|   -4.252045|  -11.566536|    5.117898|
|         172|  2.9877e+00|   -4.492709|   -4.577133|   -4.889109|   -4.890184|   -4.250007|  -11.563614|    5.117518|
|         173|  2.9815e+00|   -4.490180|   -4.575265|   -4.886909|   -4.887967|   -4.247605|  -11.560174|    5.117059|
|         174|  2.9753e+00|   -4.487207|   -4.572997|   -4.884273|   -4.885310|   -4.244786|  -11.556143|    5.116505|
|         175|  2.9694e+00|   -4.483727|   -4.570237|   -4.881114|   -4.882126|   -4.241488|  -11.551444|    5.115836|
|         176|  2.9635e+00|   -4.479670|   -4.566872|   -4.877333|   -4.878313|   -4.237648|  -11.546002|    5.115027|
|         177|  2.9585e+00|   -4.474966|   -4.562759|   -4.872811|   -4.873751|   -4.233195|  -11.539740|    5.114047|
|         178|  2.9537e+00|   -4.469539|   -4.557724|   -4.867409|   -4.868299|   -4.228048|  -11.532590|    5.112860|
|         179|  2.9487e+00|   -4.463302|   -4.551557|   -4.860969|   -4.861794|   -4.222108|  -11.524485|    5.111422|
|         180|  2.9447e+00|   -4.456144|   -4.544019|   -4.853303|   -4.854048|   -4.215231|  -11.515331|    5.109679|
|         181|  2.9407e+00|   -4.447910|   -4.534852|   -4.844200|   -4.844851|   -4.207199|  -11.504985|    5.107567|
|         182|  2.9369e+00|   -4.438352|   -4.523813|   -4.833418|   -4.833969|   -4.197654|  -11.493183|    5.105012|
|         183|  2.9339e+00|   -4.427068|   -4.510717|   -4.820679|   -4.821139|   -4.186038|  -11.479510|    5.101927|
|         184|  2.9310e+00|   -4.413468|   -4.495477|   -4.805659|   -4.806062|   -4.171587|  -11.463339|    5.098212|
|         185|  2.9288e+00|   -4.396821|   -4.478109|   -4.787990|   -4.788401|   -4.153461|  -11.444022|    5.093752|
|         186|  2.9267e+00|   -4.376456|   -4.458631|   -4.767281|   -4.767760|   -4.131122|  -11.421136|    5.088408|
|         187|  2.9256e+00|   -4.352067|   -4.436802|   -4.743123|   -4.743659|   -4.104698|  -11.396493|    5.082404|
|         188|  2.9246e+00|   -4.325269|   -4.413381|   -4.716642|   -4.717121|   -4.076600|  -11.373289|    5.076424|
|         189|  2.9235e+00|   -4.299441|   -4.390340|   -4.690665|   -4.691062|   -4.050786|  -11.350582|    5.070463|
|         190|  2.9225e+00|   -4.275329|   -4.366818|   -4.665187|   -4.665527|   -4.027736|  -11.328593|    5.064522|
|         191|  2.9220e+00|   -4.252695|   -4.342860|   -4.640304|   -4.640609|   -4.006805|  -11.307034|    5.058602|
|         192|  2.9209e+00|   -4.230808|   -4.319116|   -4.616150|   -4.616404|   -3.986767|  -11.285491|    5.052699|
|         193|  2.9200e+00|   -4.208922|   -4.296226|   -4.592727|   -4.592922|   -3.966463|  -11.263791|    5.046801|
|         194|  2.9194e+00|   -4.186818|   -4.274449|   -4.570041|   -4.570186|   -3.945467|  -11.242105|    5.040875|
|         195|  2.9135e+00|   -4.164880|   -4.253721|   -4.548228|   -4.548339|   -3.924306|  -11.253337|    5.040685|
|         196|  2.9075e+00|   -4.163636|   -4.253077|   -4.547341|   -4.547453|   -3.923204|  -11.251486|    5.040456|
|         197|  2.9028e+00|   -4.162165|   -4.252301|   -4.546281|   -4.546393|   -3.921904|  -11.249298|    5.040181|
|         198|  2.8978e+00|   -4.160428|   -4.251365|   -4.545015|   -4.545127|   -3.920373|  -11.246719|    5.039850|
|         199|  2.8928e+00|   -4.158386|   -4.250236|   -4.543502|   -4.543615|   -3.918579|  -11.243692|    5.039453|
|         200|  2.8879e+00|   -4.155997|   -4.248868|   -4.541696|   -4.541811|   -3.916488|  -11.240158|    5.038975|
|         201|  2.8831e+00|   -4.153219|   -4.247211|   -4.539548|   -4.539664|   -3.914066|  -11.236059|    5.038401|
|         202|  2.8784e+00|   -4.150008|   -4.245195|   -4.536996|   -4.537114|   -3.911283|  -11.231345|    5.037709|
|         203|  2.8744e+00|   -4.146330|   -4.242736|   -4.533974|   -4.534095|   -3.908117|  -11.225973|    5.036874|
|         204|  2.8705e+00|   -4.142154|   -4.239727|   -4.530405|   -4.530527|   -3.904546|  -11.219917|    5.035867|
|         205|  2.8666e+00|   -4.137460|   -4.236030|   -4.526202|   -4.526325|   -3.900557|  -11.213176|    5.034650|
|         206|  2.8636e+00|   -4.132243|   -4.231483|   -4.521284|   -4.521398|   -3.896140|  -11.205768|    5.033176|
|         207|  2.8608e+00|   -4.126506|   -4.225902|   -4.515566|   -4.515666|   -3.891280|  -11.197736|    5.031388|
|         208|  2.8577e+00|   -4.120222|   -4.219095|   -4.508963|   -4.509031|   -3.885889|  -11.189099|    5.029212|
|         209|  2.8557e+00|   -4.113305|   -4.210914|   -4.501401|   -4.501420|   -3.879773|  -11.179792|    5.026558|
|         210|  2.8537e+00|   -4.105507|   -4.201296|   -4.492811|   -4.492757|   -3.872501|  -11.169530|    5.023306|
|         211|  2.8524e+00|   -4.096398|   -4.190340|   -4.483117|   -4.482980|   -3.863399|  -11.157940|    5.019298|
|         212|  2.8513e+00|   -4.085366|   -4.178275|   -4.472211|   -4.471998|   -3.851614|  -11.144588|    5.014318|
|         213|  2.8508e+00|   -4.071876|   -4.165324|   -4.459951|   -4.459733|   -3.836593|  -11.129367|    5.008054|
|         214|  2.8504e+00|   -4.055950|   -4.151479|   -4.446222|   -4.446131|   -3.818729|  -11.114319|    5.000581|
|         215|  2.8501e+00|   -4.039378|   -4.137445|   -4.432015|   -4.432049|   -3.800840|  -11.102549|    4.992660|
|         216|  2.8497e+00|   -4.024872|   -4.124519|   -4.419089|   -4.419023|   -3.786558|  -11.092285|    4.984247|
|         217|  2.8492e+00|   -4.013071|   -4.111736|   -4.407287|   -4.406902|   -3.776288|  -11.083081|    4.975320|
|         218|  2.8487e+00|   -4.003578|   -4.098840|   -4.396393|   -4.395600|   -3.769056|  -11.074294|    4.965884|
|         219|  2.8484e+00|   -3.995569|   -4.086290|   -4.386234|   -4.385016|   -3.763462|  -11.065468|    4.955974|
|         220|  2.8480e+00|   -3.988356|   -4.074914|   -4.376800|   -4.375171|   -3.758582|  -11.056693|    4.945655|
|         221|  2.8475e+00|   -3.981430|   -4.065246|   -4.368016|   -4.366048|   -3.753855|  -11.048043|    4.935022|
|         222|  2.8470e+00|   -3.974513|   -4.057138|   -4.359810|   -4.357610|   -3.749013|  -11.039492|    4.924187|
|         223|  2.8465e+00|   -3.967516|   -4.049896|   -4.352073|   -4.349802|   -3.743942|  -11.031145|    4.913280|
|         224|  2.8459e+00|   -3.960582|   -4.042956|   -4.344723|   -4.342508|   -3.738894|  -11.023300|    4.902431|
|         225|  2.8453e+00|   -3.953819|   -4.036189|   -4.337689|   -4.335596|   -3.734152|  -11.016111|    4.891766|
|         226|  2.8441e+00|   -3.947215|   -4.029584|   -4.330870|   -4.328865|   -3.729665|  -11.009253|    4.881397|
|         227|  2.8428e+00|   -3.940740|   -4.023097|   -4.324180|   -4.322167|   -3.725219|  -11.002597|    4.871418|
|         228|  2.8414e+00|   -3.934481|   -4.016899|   -4.317641|   -4.315576|   -3.720914|  -10.996301|    4.861892|
|         229|  2.8402e+00|   -3.928496|   -4.011232|   -4.311300|   -4.309260|   -3.716923|  -10.990522|    4.852855|
|         230|  2.8393e+00|   -3.922719|   -4.006132|   -4.305195|   -4.303310|   -3.713184|  -10.985062|    4.844307|
|         231|  2.8381e+00|   -3.917003|   -4.001433|   -4.299312|   -4.297641|   -3.709416|  -10.979813|    4.836215|
|         232|  2.8369e+00|   -3.911328|   -3.997058|   -4.293605|   -4.292144|   -3.705534|  -10.974824|    4.828513|
|         233|  2.8357e+00|   -3.905807|   -3.993050|   -4.288021|   -4.286801|   -3.701677|  -10.970150|    4.821105|
|         234|  2.8346e+00|   -3.900571|   -3.989447|   -4.282559|   -4.281662|   -3.698014|  -10.965936|    4.813872|
|         235|  2.8335e+00|   -3.895721|   -3.986343|   -4.277326|   -4.276792|   -3.694712|  -10.962299|    4.806679|
|         236|  2.8323e+00|   -3.891260|   -3.983855|   -4.272370|   -4.272153|   -3.691816|  -10.959194|    4.799383|
|         237|  2.8312e+00|   -3.887108|   -3.982040|   -4.267625|   -4.267687|   -3.689232|  -10.956501|    4.791846|
|         238|  2.8301e+00|   -3.883166|   -3.980821|   -4.262967|   -4.263343|   -3.686776|  -10.954100|    4.783936|
|         239|  2.8292e+00|   -3.879408|   -3.980158|   -4.258375|   -4.259085|   -3.684415|  -10.952060|    4.775539|
|         240|  2.8282e+00|   -3.875870|   -3.980062|   -4.253911|   -4.254934|   -3.682233|  -10.950458|    4.766558|
|         241|  2.8272e+00|   -3.872597|   -3.980540|   -4.249618|   -4.250888|   -3.680295|  -10.949292|    4.756918|
|         242|  2.8261e+00|   -3.869625|   -3.981602|   -4.245507|   -4.246997|   -3.678661|  -10.948552|    4.746562|
|         243|  2.8252e+00|   -3.866975|   -3.983221|   -4.241569|   -4.243310|   -3.677349|  -10.948214|    4.735450|
|         244|  2.8243e+00|   -3.864646|   -3.985411|   -4.237824|   -4.239893|   -3.676375|  -10.948251|    4.723554|
|         245|  2.8232e+00|   -3.862630|   -3.988187|   -4.234313|   -4.236781|   -3.675749|  -10.948615|    4.710859|
|         246|  2.8221e+00|   -3.860896|   -3.991521|   -4.231063|   -4.233989|   -3.675437|  -10.949269|    4.697357|
|         247|  2.8210e+00|   -3.859422|   -3.995333|   -4.228072|   -4.231465|   -3.675395|  -10.950193|    4.683049|
|         248|  2.8200e+00|   -3.858201|   -3.999573|   -4.225329|   -4.229168|   -3.675625|  -10.951419|    4.667938|
|         249|  2.8189e+00|   -3.857221|   -4.004237|   -4.222825|   -4.227092|   -3.676135|  -10.952904|    4.652039|
|         250|  2.8178e+00|   -3.856451|   -4.009285|   -4.220583|   -4.225261|   -3.676877|  -10.954580|    4.635367|
|         251|  2.8176e+00|   -3.855882|   -4.014617|   -4.218611|   -4.223698|   -3.677824|  -10.956396|    4.617949|
|         252|  2.8167e+00|   -3.855514|   -4.020116|   -4.216916|   -4.222401|   -3.678964|  -10.958350|    4.599816|
|         253|  2.8159e+00|   -3.855347|   -4.025724|   -4.215503|   -4.221376|   -3.680310|  -10.960459|    4.581007|
|         254|  2.8148e+00|   -3.855365|   -4.031407|   -4.214378|   -4.220633|   -3.681836|  -10.962723|    4.561563|
|         255|  2.8140e+00|   -3.855532|   -4.037071|   -4.213547|   -4.220167|   -3.683465|  -10.965062|    4.541532|
|         256|  2.8130e+00|   -3.855829|   -4.042575|   -4.212990|   -4.219985|   -3.685128|  -10.967421|    4.520959|
|         257|  2.8119e+00|   -3.856277|   -4.047749|   -4.212719|   -4.220081|   -3.686833|  -10.969793|    4.499889|
|         258|  2.8110e+00|   -3.856922|   -4.052503|   -4.212749|   -4.220452|   -3.688652|  -10.972204|    4.478363|
|         259|  2.8100e+00|   -3.857748|   -4.056767|   -4.213092|   -4.221052|   -3.690580|  -10.974685|    4.456416|
|         260|  2.8090e+00|   -3.858705|   -4.060448|   -4.213721|   -4.221831|   -3.692514|  -10.977218|    4.434072|
|         261|  2.8081e+00|   -3.859747|   -4.063415|   -4.214623|   -4.222761|   -3.694349|  -10.979727|    4.411346|
|         262|  2.8073e+00|   -3.860847|   -4.065548|   -4.215763|   -4.223849|   -3.696032|  -10.982160|    4.388241|
|         263|  2.8064e+00|   -3.862008|   -4.066807|   -4.217105|   -4.225102|   -3.697569|  -10.984528|    4.364751|
|         264|  2.8055e+00|   -3.863237|   -4.067207|   -4.218616|   -4.226519|   -3.698975|  -10.986855|    4.340860|
|         265|  2.8045e+00|   -3.864515|   -4.066780|   -4.220251|   -4.228063|   -3.700204|  -10.989155|    4.316545|
|         266|  2.8036e+00|   -3.865848|   -4.065611|   -4.222005|   -4.229695|   -3.701256|  -10.991435|    4.291778|
|         267|  2.8027e+00|   -3.867252|   -4.063786|   -4.223874|   -4.231392|   -3.702154|  -10.993733|    4.266532|
|         268|  2.8017e+00|   -3.868771|   -4.061415|   -4.225854|   -4.233129|   -3.702975|  -10.996105|    4.240776|
|         269|  2.8008e+00|   -3.870427|   -4.058622|   -4.227945|   -4.234874|   -3.703774|  -10.998580|    4.214487|
|         270|  2.7998e+00|   -3.872234|   -4.055547|   -4.230129|   -4.236629|   -3.704587|  -11.001126|    4.187645|
|         271|  2.7990e+00|   -3.874171|   -4.052303|   -4.232368|   -4.238412|   -3.705403|  -11.003706|    4.160239|
|         272|  2.7981e+00|   -3.876225|   -4.048999|   -4.234632|   -4.240237|   -3.706218|  -11.006302|    4.132269|
|         273|  2.7972e+00|   -3.878396|   -4.045765|   -4.236916|   -4.242116|   -3.707039|  -11.008911|    4.103742|
|         274|  2.7963e+00|   -3.880680|   -4.042722|   -4.239227|   -4.244042|   -3.707900|  -11.011531|    4.074682|
|         275|  2.7954e+00|   -3.883084|   -4.039978|   -4.241584|   -4.245996|   -3.708850|  -11.014195|    4.045117|
|         276|  2.7945e+00|   -3.885612|   -4.037614|   -4.243997|   -4.247961|   -3.709915|  -11.016924|    4.015089|
|         277|  2.7936e+00|   -3.888265|   -4.035694|   -4.246467|   -4.249940|   -3.711123|  -11.019744|    3.984646|
|         278|  2.7927e+00|   -3.891045|   -4.034254|   -4.248989|   -4.251937|   -3.712493|  -11.022657|    3.953842|
|         279|  2.7919e+00|   -3.893977|   -4.033345|   -4.251557|   -4.253961|   -3.714064|  -11.025667|    3.922737|
|         280|  2.7911e+00|   -3.897053|   -4.033004|   -4.254156|   -4.256022|   -3.715853|  -11.028764|    3.891391|
|         281|  2.7902e+00|   -3.900275|   -4.033260|   -4.256787|   -4.258142|   -3.717886|  -11.031948|    3.859865|
|         282|  2.7894e+00|   -3.903632|   -4.034111|   -4.259443|   -4.260344|   -3.720152|  -11.035202|    3.828219|
|         283|  2.7885e+00|   -3.907101|   -4.035597|   -4.262124|   -4.262643|   -3.722646|  -11.038488|    3.796509|
|         284|  2.7878e+00|   -3.910678|   -4.037720|   -4.264841|   -4.265051|   -3.725373|  -11.041804|    3.764785|
|         285|  2.7871e+00|   -3.914353|   -4.040465|   -4.267603|   -4.267572|   -3.728329|  -11.045130|    3.733095|
|         286|  2.7863e+00|   -3.918120|   -4.043825|   -4.270437|   -4.270209|   -3.731524|  -11.048462|    3.701479|
|         287|  2.7856e+00|   -3.921974|   -4.047778|   -4.273359|   -4.272963|   -3.734958|  -11.051784|    3.669973|
|         288|  2.7848e+00|   -3.925905|   -4.052303|   -4.276364|   -4.275836|   -3.738626|  -11.055076|    3.638606|
|         289|  2.7842e+00|   -3.929899|   -4.057374|   -4.279439|   -4.278806|   -3.742503|  -11.058335|    3.607403|
|         290|  2.7834e+00|   -3.933943|   -4.062949|   -4.282566|   -4.281839|   -3.746555|  -11.061536|    3.576384|
|         291|  2.7826e+00|   -3.938023|   -4.068963|   -4.285732|   -4.284926|   -3.750756|  -11.064685|    3.545563|
|         292|  2.7817e+00|   -3.942128|   -4.075411|   -4.288919|   -4.288056|   -3.755093|  -11.067784|    3.514954|
|         293|  2.7810e+00|   -3.946229|   -4.082284|   -4.292117|   -4.291219|   -3.759534|  -11.070828|    3.484567|
|         294|  2.7803e+00|   -3.950304|   -4.089562|   -4.295322|   -4.294414|   -3.764045|  -11.073834|    3.454409|
|         295|  2.7795e+00|   -3.954342|   -4.097209|   -4.298520|   -4.297635|   -3.768594|  -11.076790|    3.424488|
|         296|  2.7787e+00|   -3.958361|   -4.105178|   -4.301705|   -4.300897|   -3.773190|  -11.079709|    3.394809|
|         297|  2.7780e+00|   -3.962388|   -4.113400|   -4.304877|   -4.304201|   -3.777842|  -11.082644|    3.365379|
|         298|  2.7773e+00|   -3.966446|   -4.121862|   -4.308053|   -4.307537|   -3.782578|  -11.085616|    3.336204|
|         299|  2.7765e+00|   -3.970542|   -4.130528|   -4.311252|   -4.310905|   -3.787400|  -11.088604|    3.307290|
|         300|  2.7759e+00|   -3.974658|   -4.139353|   -4.314487|   -4.314297|   -3.792283|  -11.091562|    3.278642|
+-----------------------------------------------------------------------+
|        File Writing Summary       |              Filename             |
+-----------------------------------------------------------------------+
|SU2 binary restart                 |restart_flow.dat                   |
|Paraview                           |flow.vtu                           |
|Paraview surface                   |surface_flow.vtu                   |
+-----------------------------------------------------------------------+
+--------------------------------------------------------------------------------------------------------------------+
|  Inner_Iter|   Time(sec)|    rms[Rho]|   rms[RhoU]|   rms[RhoV]|   rms[RhoW]|   rms[RhoE]|     rms[nu]|          CD|
+--------------------------------------------------------------------------------------------------------------------+
|         301|  2.8114e+00|   -3.978759|   -4.148300|   -4.317747|   -4.317692|   -3.797175|  -11.094423|    3.250268|
|         302|  2.8115e+00|   -3.982810|   -4.157332|   -4.321005|   -4.321069|   -3.802016|  -11.097149|    3.222172|
|         303|  2.8112e+00|   -3.986792|   -4.166412|   -4.324227|   -4.324416|   -3.806772|  -11.099771|    3.194361|
|         304|  2.8108e+00|   -3.990716|   -4.175486|   -4.327391|   -4.327735|   -3.811441|  -11.102342|    3.166838|
|         305|  2.8102e+00|   -3.994594|   -4.184499|   -4.330496|   -4.331026|   -3.816035|  -11.104900|    3.139607|
|         306|  2.8096e+00|   -3.998450|   -4.193401|   -4.333565|   -4.334306|   -3.820582|  -11.107420|    3.112672|
|         307|  2.8091e+00|   -4.002284|   -4.202159|   -4.336614|   -4.337576|   -3.825092|  -11.109886|    3.086032|
|         308|  2.8084e+00|   -4.006088|   -4.210746|   -4.339653|   -4.340822|   -3.829548|  -11.112293|    3.059690|
|         309|  2.8077e+00|   -4.009823|   -4.219127|   -4.342662|   -4.344012|   -3.833900|  -11.114603|    3.033646|
|         310|  2.8069e+00|   -4.013476|   -4.227278|   -4.345633|   -4.347132|   -3.838119|  -11.116787|    3.007898|
|         311|  2.8063e+00|   -4.017034|   -4.235181|   -4.348553|   -4.350165|   -3.842190|  -11.118871|    2.982447|
|         312|  2.8055e+00|   -4.020503|   -4.242803|   -4.351407|   -4.353115|   -3.846118|  -11.120871|    2.957291|
|         313|  2.8048e+00|   -4.023901|   -4.250119|   -4.354182|   -4.355983|   -3.849923|  -11.122825|    2.932428|
|         314|  2.8041e+00|   -4.027253|   -4.257110|   -4.356879|   -4.358789|   -3.853636|  -11.124752|    2.907858|
|         315|  2.8034e+00|   -4.030575|   -4.263746|   -4.359511|   -4.361532|   -3.857277|  -11.126689|    2.883580|
|         316|  2.8026e+00|   -4.033868|   -4.270016|   -4.362088|   -4.364209|   -3.860846|  -11.128629|    2.859592|
|         317|  2.8018e+00|   -4.037126|   -4.275902|   -4.364627|   -4.366826|   -3.864344|  -11.130563|    2.835894|
|         318|  2.8011e+00|   -4.040332|   -4.281381|   -4.367133|   -4.369377|   -3.867751|  -11.132503|    2.812484|
|         319|  2.8006e+00|   -4.043472|   -4.286432|   -4.369613|   -4.371865|   -3.871053|  -11.134444|    2.789361|
|         320|  2.7999e+00|   -4.046517|   -4.291037|   -4.372055|   -4.374282|   -3.874216|  -11.136373|    2.766524|
|         321|  2.7992e+00|   -4.049448|   -4.295179|   -4.374447|   -4.376614|   -3.877225|  -11.138302|    2.743969|
|         322|  2.7985e+00|   -4.052261|   -4.298844|   -4.376766|   -4.378844|   -3.880066|  -11.140224|    2.721692|
|         323|  2.7977e+00|   -4.054957|   -4.302024|   -4.378990|   -4.380960|   -3.882742|  -11.142138|    2.699690|
|         324|  2.7970e+00|   -4.057545|   -4.304700|   -4.381112|   -4.382952|   -3.885265|  -11.144048|    2.677956|
|         325|  2.7964e+00|   -4.060029|   -4.306850|   -4.383121|   -4.384813|   -3.887637|  -11.145937|    2.656484|
|         326|  2.7957e+00|   -4.062410|   -4.308451|   -4.385013|   -4.386545|   -3.889867|  -11.147785|    2.635268|
|         327|  2.7950e+00|   -4.064691|   -4.309479|   -4.386785|   -4.388155|   -3.891963|  -11.149558|    2.614300|
|         328|  2.7943e+00|   -4.066860|   -4.309919|   -4.388436|   -4.389638|   -3.893913|  -11.151217|    2.593570|
|         329|  2.7935e+00|   -4.068898|   -4.309758|   -4.389961|   -4.390986|   -3.895695|  -11.152722|    2.573071|
|         330|  2.7928e+00|   -4.070791|   -4.308997|   -4.391345|   -4.392192|   -3.897297|  -11.154046|    2.552793|
|         331|  2.7920e+00|   -4.072517|   -4.307637|   -4.392566|   -4.393239|   -3.898699|  -11.155181|    2.532726|
|         332|  2.7912e+00|   -4.074062|   -4.305685|   -4.393593|   -4.394113|   -3.899889|  -11.156130|    2.512865|
|         333|  2.7906e+00|   -4.075417|   -4.303143|   -4.394404|   -4.394794|   -3.900861|  -11.156895|    2.493202|
|         334|  2.7898e+00|   -4.076581|   -4.300016|   -4.394988|   -4.395273|   -3.901617|  -11.157456|    2.473734|
|         335|  2.7891e+00|   -4.077548|   -4.296322|   -4.395335|   -4.395528|   -3.902166|  -11.157803|    2.454459|
|         336|  2.7885e+00|   -4.078309|   -4.292083|   -4.395437|   -4.395549|   -3.902511|  -11.157935|    2.435377|
|         337|  2.7877e+00|   -4.078860|   -4.287326|   -4.395304|   -4.395333|   -3.902666|  -11.157835|    2.416492|
|         338|  2.7871e+00|   -4.079183|   -4.282098|   -4.394935|   -4.394879|   -3.902628|  -11.157485|    2.397805|
|         339|  2.7864e+00|   -4.079258|   -4.276448|   -4.394325|   -4.394188|   -3.902393|  -11.156869|    2.379321|
|         340|  2.7857e+00|   -4.079055|   -4.270440|   -4.393470|   -4.393262|   -3.901951|  -11.155968|    2.361043|
|         341|  2.7851e+00|   -4.078544|   -4.264141|   -4.392366|   -4.392100|   -3.901297|  -11.154774|    2.342972|
|         342|  2.7844e+00|   -4.077709|   -4.257623|   -4.391013|   -4.390713|   -3.900445|  -11.153300|    2.325111|
|         343|  2.7838e+00|   -4.076535|   -4.250958|   -4.389409|   -4.389091|   -3.899395|  -11.151537|    2.307460|
|         344|  2.7832e+00|   -4.075008|   -4.244209|   -4.387559|   -4.387235|   -3.898154|  -11.149480|    2.290023|
|         345|  2.7826e+00|   -4.073123|   -4.237435|   -4.385472|   -4.385147|   -3.896740|  -11.147133|    2.272804|
|         346|  2.7819e+00|   -4.070878|   -4.230686|   -4.383159|   -4.382832|   -3.895166|  -11.144494|    2.255810|
|         347|  2.7813e+00|   -4.068269|   -4.224009|   -4.380628|   -4.380303|   -3.893444|  -11.141565|    2.239055|
|         348|  2.7806e+00|   -4.065294|   -4.217446|   -4.377896|   -4.377581|   -3.891582|  -11.138339|    2.222555|
|         349|  2.7799e+00|   -4.061940|   -4.211034|   -4.374967|   -4.374681|   -3.889573|  -11.134828|    2.206331|
|         350|  2.7792e+00|   -4.058202|   -4.204800|   -4.371844|   -4.371623|   -3.887414|  -11.131048|    2.190409|
|         351|  2.7786e+00|   -4.054075|   -4.198770|   -4.368538|   -4.368412|   -3.885094|  -11.127010|    2.174816|
|         352|  2.7779e+00|   -4.049557|   -4.192958|   -4.365055|   -4.365049|   -3.882600|  -11.122731|    2.159581|
|         353|  2.7773e+00|   -4.044648|   -4.187371|   -4.361395|   -4.361528|   -3.879913|  -11.118235|    2.144736|
|         354|  2.7767e+00|   -4.039357|   -4.182009|   -4.357565|   -4.357842|   -3.877015|  -11.113567|    2.130307|
|         355|  2.7761e+00|   -4.033697|   -4.176860|   -4.353574|   -4.353983|   -3.873897|  -11.108753|    2.116321|
|         356|  2.7756e+00|   -4.027691|   -4.171902|   -4.349424|   -4.349948|   -3.870546|  -11.103845|    2.102799|
|         357|  2.7751e+00|   -4.021360|   -4.167102|   -4.345122|   -4.345737|   -3.866949|  -11.098867|    2.089755|
|         358|  2.7745e+00|   -4.014733|   -4.162420|   -4.340667|   -4.341350|   -3.863096|  -11.093821|    2.077199|
|         359|  2.7740e+00|   -4.007833|   -4.157806|   -4.336058|   -4.336788|   -3.858972|  -11.088707|    2.065132|
|         360|  2.7734e+00|   -4.000685|   -4.153203|   -4.331292|   -4.332046|   -3.854560|  -11.083530|    2.053548|
|         361|  2.7729e+00|   -3.993311|   -4.148547|   -4.326364|   -4.327119|   -3.849843|  -11.078310|    2.042435|
|         362|  2.7722e+00|   -3.985729|   -4.143775|   -4.321261|   -4.322003|   -3.844801|  -11.073057|    2.031776|
|         363|  2.7717e+00|   -3.977954|   -4.138820|   -4.315965|   -4.316684|   -3.839410|  -11.067713|    2.021544|
|         364|  2.7711e+00|   -3.970002|   -4.133619|   -4.310468|   -4.311152|   -3.833657|  -11.062162|    2.011714|
|         365|  2.7707e+00|   -3.961889|   -4.128111|   -4.304762|   -4.305401|   -3.827534|  -11.056399|    2.002256|
|         366|  2.7702e+00|   -3.953632|   -4.122245|   -4.298842|   -4.299426|   -3.821040|  -11.050412|    1.993139|
|         367|  2.7697e+00|   -3.945251|   -4.115973|   -4.292716|   -4.293231|   -3.814183|  -11.044141|    1.984338|
|         368|  2.7692e+00|   -3.936765|   -4.109260|   -4.286394|   -4.286820|   -3.806975|  -11.037559|    1.975828|
|         369|  2.7688e+00|   -3.928191|   -4.102080|   -4.279889|   -4.280204|   -3.799433|  -11.030665|    1.967592|
|         370|  2.7683e+00|   -3.919547|   -4.094421|   -4.273221|   -4.273395|   -3.791579|  -11.023471|    1.959614|
|         371|  2.7678e+00|   -3.910852|   -4.086281|   -4.266409|   -4.266414|   -3.783440|  -11.015980|    1.951884|
|         372|  2.7673e+00|   -3.902123|   -4.077675|   -4.259468|   -4.259280|   -3.775045|  -11.008209|    1.944393|
|         373|  2.7668e+00|   -3.893377|   -4.068633|   -4.252421|   -4.252014|   -3.766430|  -11.000198|    1.937138|
|         374|  2.7662e+00|   -3.884634|   -4.059194|   -4.245287|   -4.244641|   -3.757634|  -10.991990|    1.930115|
|         375|  2.7657e+00|   -3.875914|   -4.049411|   -4.238089|   -4.237186|   -3.748696|  -10.983633|    1.923325|
|         376|  2.7652e+00|   -3.867236|   -4.039343|   -4.230849|   -4.229674|   -3.739661|  -10.975167|    1.916768|
|         377|  2.7647e+00|   -3.858619|   -4.029057|   -4.223593|   -4.222132|   -3.730571|  -10.966650|    1.910445|
|         378|  2.7641e+00|   -3.850083|   -4.018626|   -4.216346|   -4.214587|   -3.721470|  -10.958120|    1.904357|
|         379|  2.7636e+00|   -3.841645|   -4.008114|   -4.209132|   -4.207069|   -3.712398|  -10.949610|    1.898502|
|         380|  2.7630e+00|   -3.833323|   -3.997589|   -4.201972|   -4.199608|   -3.703391|  -10.941152|    1.892880|
|         381|  2.7625e+00|   -3.825131|   -3.987113|   -4.194889|   -4.192230|   -3.694483|  -10.932778|    1.887491|
|         382|  2.7620e+00|   -3.817086|   -3.976745|   -4.187901|   -4.184962|   -3.685706|  -10.924515|    1.882334|
|         383|  2.7615e+00|   -3.809201|   -3.966546|   -4.181029|   -4.177827|   -3.677090|  -10.916391|    1.877407|
|         384|  2.7611e+00|   -3.801492|   -3.956561|   -4.174292|   -4.170848|   -3.668662|  -10.908428|    1.872712|
|         385|  2.7605e+00|   -3.793971|   -3.946826|   -4.167708|   -4.164047|   -3.660443|  -10.900640|    1.868249|
|         386|  2.7600e+00|   -3.786650|   -3.937375|   -4.161287|   -4.157442|   -3.652453|  -10.893041|    1.864021|
|         387|  2.7596e+00|   -3.779540|   -3.928241|   -4.155044|   -4.151049|   -3.644710|  -10.885642|    1.860031|
|         388|  2.7592e+00|   -3.772655|   -3.919453|   -4.148998|   -4.144883|   -3.637236|  -10.878456|    1.856281|
|         389|  2.7587e+00|   -3.766002|   -3.911028|   -4.143157|   -4.138955|   -3.630041|  -10.871492|    1.852774|
|         390|  2.7583e+00|   -3.759589|   -3.902979|   -4.137527|   -4.133274|   -3.623133|  -10.864758|    1.849515|
|         391|  2.7579e+00|   -3.753418|   -3.895315|   -4.132115|   -4.127846|   -3.616514|  -10.858259|    1.846504|
|         392|  2.7574e+00|   -3.747496|   -3.888041|   -4.126934|   -4.122675|   -3.610192|  -10.851998|    1.843746|
|         393|  2.7570e+00|   -3.741826|   -3.881161|   -4.121991|   -4.117762|   -3.604171|  -10.845981|    1.841239|
|         394|  2.7566e+00|   -3.736415|   -3.874678|   -4.117291|   -4.113109|   -3.598456|  -10.840208|    1.838985|
|         395|  2.7561e+00|   -3.731262|   -3.868588|   -4.112836|   -4.108718|   -3.593047|  -10.834687|    1.836983|
|         396|  2.7556e+00|   -3.726359|   -3.862869|   -4.108620|   -4.104576|   -3.587926|  -10.829419|    1.835230|
|         397|  2.7551e+00|   -3.721701|   -3.857511|   -4.104640|   -4.100675|   -3.583086|  -10.824405|    1.833725|
|         398|  2.7547e+00|   -3.717284|   -3.852503|   -4.100891|   -4.097004|   -3.578521|  -10.819645|    1.832466|
|         399|  2.7543e+00|   -3.713108|   -3.847837|   -4.097370|   -4.093552|   -3.574226|  -10.815133|    1.831453|
|         400|  2.7539e+00|   -3.709181|   -3.843520|   -4.094089|   -4.090317|   -3.570212|  -10.810867|    1.830687|
|         401|  2.7535e+00|   -3.705497|   -3.839530|   -4.091031|   -4.087290|   -3.566467|  -10.806842|    1.830171|
|         402|  2.7531e+00|   -3.702053|   -3.835863|   -4.088191|   -4.084461|   -3.562986|  -10.803048|    1.829908|
|         403|  2.7526e+00|   -3.698839|   -3.832507|   -4.085555|   -4.081820|   -3.559756|  -10.799477|    1.829905|
|         404|  2.7523e+00|   -3.695848|   -3.829422|   -4.083120|   -4.079359|   -3.556762|  -10.796124|    1.830169|
|         405|  2.7518e+00|   -3.693079|   -3.826619|   -4.080877|   -4.077082|   -3.554007|  -10.792985|    1.830710|
|         406|  2.7515e+00|   -3.690520|   -3.824074|   -4.078819|   -4.074978|   -3.551476|  -10.790050|    1.831534|
|         407|  2.7511e+00|   -3.688159|   -3.821769|   -4.076936|   -4.073043|   -3.549154|  -10.787310|    1.832650|
|         408|  2.7507e+00|   -3.685990|   -3.819684|   -4.075227|   -4.071278|   -3.547033|  -10.784761|    1.834066|
|         409|  2.7504e+00|   -3.684001|   -3.817802|   -4.073685|   -4.069673|   -3.545099|  -10.782398|    1.835786|
|         410|  2.7500e+00|   -3.682191|   -3.816114|   -4.072310|   -4.068233|   -3.543349|  -10.780219|    1.837813|
|         411|  2.7496e+00|   -3.680550|   -3.814611|   -4.071098|   -4.066957|   -3.541777|  -10.778218|    1.840149|
|         412|  2.7491e+00|   -3.679065|   -3.813284|   -4.070040|   -4.065835|   -3.540369|  -10.776383|    1.842792|
|         413|  2.7488e+00|   -3.677738|   -3.812139|   -4.069139|   -4.064864|   -3.539130|  -10.774711|    1.845738|
|         414|  2.7463e+00|   -3.676560|   -3.811163|   -4.068386|   -4.064042|   -3.538055|  -10.836185|    1.845830|
|         415|  2.7440e+00|   -3.676626|   -3.811278|   -4.068543|   -4.064198|   -3.538225|  -10.835307|    1.845942|
|         416|  2.7416e+00|   -3.676712|   -3.811429|   -4.068724|   -4.064378|   -3.538443|  -10.834260|    1.846077|
|         417|  2.7392e+00|   -3.676825|   -3.811630|   -4.068929|   -4.064581|   -3.538723|  -10.833015|    1.846240|
|         418|  2.7372e+00|   -3.676972|   -3.811898|   -4.069158|   -4.064810|   -3.539083|  -10.831537|    1.846438|
|         419|  2.7352e+00|   -3.677167|   -3.812258|   -4.069411|   -4.065060|   -3.539551|  -10.829784|    1.846678|
|         420|  2.7333e+00|   -3.677424|   -3.812741|   -4.069683|   -4.065330|   -3.540159|  -10.827713|    1.846971|
|         421|  2.7313e+00|   -3.677764|   -3.813389|   -4.069965|   -4.065609|   -3.540952|  -10.825272|    1.847328|
|         422|  2.7293e+00|   -3.678211|   -3.814257|   -4.070245|   -4.065885|   -3.541986|  -10.822405|    1.847764|
|         423|  2.7273e+00|   -3.678795|   -3.815412|   -4.070503|   -4.066140|   -3.543328|  -10.819048|    1.848299|
|         424|  2.7258e+00|   -3.679547|   -3.816932|   -4.070715|   -4.066347|   -3.545057|  -10.815133|    1.848956|
|         425|  2.7243e+00|   -3.680497|   -3.818899|   -4.070849|   -4.066474|   -3.547255|  -10.810584|    1.849766|
|         426|  2.7227e+00|   -3.681658|   -3.821380|   -4.070873|   -4.066490|   -3.549989|  -10.805317|    1.850769|
|         427|  2.7212e+00|   -3.683005|   -3.824388|   -4.070768|   -4.066372|   -3.553271|  -10.799251|    1.852013|
|         428|  2.7202e+00|   -3.684444|   -3.827815|   -4.070541|   -4.066126|   -3.557005|  -10.792316|    1.853564|
|         429|  2.7191e+00|   -3.685759|   -3.831334|   -4.070246|   -4.065806|   -3.560879|  -10.784502|    1.855507|
|         430|  2.7183e+00|   -3.686584|   -3.834302|   -4.070008|   -4.065542|   -3.564280|  -10.775921|    1.857951|
|         431|  2.7176e+00|   -3.686412|   -3.835705|   -4.070027|   -4.065538|   -3.566237|  -10.766893|    1.861042|
|         432|  2.7172e+00|   -3.684718|   -3.834334|   -4.070533|   -4.066023|   -3.565564|  -10.757992|    1.864972|
|         433|  2.7169e+00|   -3.681224|   -3.829281|   -4.071648|   -4.067127|   -3.561275|  -10.753642|    1.869660|
|         434|  2.7166e+00|   -3.676693|   -3.821469|   -4.073308|   -4.068792|   -3.554092|  -10.757683|    1.874586|
|         435|  2.7162e+00|   -3.672904|   -3.813985|   -4.075259|   -4.070770|   -3.546973|  -10.761812|    1.879739|
|         436|  2.7159e+00|   -3.670585|   -3.808333|   -4.076965|   -4.072535|   -3.541341|  -10.765693|    1.885110|
|         437|  2.7155e+00|   -3.670002|   -3.805221|   -4.078096|   -4.073755|   -3.537864|  -10.768974|    1.890691|
|         438|  2.7153e+00|   -3.671028|   -3.804721|   -4.078546|   -4.074326|   -3.536603|  -10.771395|    1.896472|
|         439|  2.7149e+00|   -3.673279|   -3.806468|   -4.078407|   -4.074350|   -3.537219|  -10.772866|    1.902446|
|         440|  2.7146e+00|   -3.676232|   -3.809841|   -4.077899|   -4.074042|   -3.539153|  -10.773471|    1.908604|
|         441|  2.7143e+00|   -3.679358|   -3.814131|   -4.077290|   -4.073662|   -3.541798|  -10.773430|    1.914941|
|         442|  2.7139e+00|   -3.682210|   -3.818664|   -4.076803|   -4.073447|   -3.544603|  -10.773003|    1.921449|
|         443|  2.7135e+00|   -3.684489|   -3.822902|   -4.076604|   -4.073555|   -3.547165|  -10.772428|    1.928123|
|         444|  2.7132e+00|   -3.686066|   -3.826504|   -4.076773|   -4.074051|   -3.549258|  -10.771875|    1.934957|
|         445|  2.7129e+00|   -3.686974|   -3.829340|   -4.077329|   -4.074934|   -3.550839|  -10.771475|    1.941946|
|         446|  2.7125e+00|   -3.687361|   -3.831454|   -4.078229|   -4.076152|   -3.551987|  -10.771281|    1.949084|
|         447|  2.7121e+00|   -3.687416|   -3.832992|   -4.079386|   -4.077628|   -3.552845|  -10.771291|    1.956364|
|         448|  2.7118e+00|   -3.687316|   -3.834137|   -4.080703|   -4.079254|   -3.553545|  -10.771473|    1.963780|
|         449|  2.7114e+00|   -3.687214|   -3.835071|   -4.082091|   -4.080934|   -3.554207|  -10.771785|    1.971325|
|         450|  2.7111e+00|   -3.687236|   -3.835953|   -4.083498|   -4.082623|   -3.554937|  -10.772185|    1.978993|
+-----------------------------------------------------------------------+
|        File Writing Summary       |              Filename             |
+-----------------------------------------------------------------------+
|SU2 binary restart                 |restart_flow.dat                   |
|Paraview                           |flow.vtu                           |
|Paraview surface                   |surface_flow.vtu                   |
+-----------------------------------------------------------------------+
+--------------------------------------------------------------------------------------------------------------------+
|  Inner_Iter|   Time(sec)|    rms[Rho]|   rms[RhoU]|   rms[RhoV]|   rms[RhoW]|   rms[RhoE]|     rms[nu]|          CD|
+--------------------------------------------------------------------------------------------------------------------+
|         451|  2.7359e+00|   -3.687440|   -3.836883|   -4.084883|   -4.084274|   -3.555777|  -10.772644|    1.986776|
|         452|  2.7360e+00|   -3.687860|   -3.837918|   -4.086241|   -4.085864|   -3.556750|  -10.773139|    1.994667|
|         453|  2.7360e+00|   -3.688486|   -3.839076|   -4.087566|   -4.087383|   -3.557839|  -10.773649|    2.002660|
|         454|  2.7360e+00|   -3.689295|   -3.840355|   -4.088862|   -4.088837|   -3.559023|  -10.774161|    2.010747|
|         455|  2.7358e+00|   -3.690267|   -3.841747|   -4.090149|   -4.090247|   -3.560292|  -10.774676|    2.018923|
|         456|  2.7356e+00|   -3.691367|   -3.843229|   -4.091447|   -4.091626|   -3.561627|  -10.775187|    2.027183|
|         457|  2.7353e+00|   -3.692588|   -3.844798|   -4.092793|   -4.093018|   -3.563042|  -10.775697|    2.035521|
|         458|  2.7351e+00|   -3.693910|   -3.846441|   -4.094206|   -4.094424|   -3.564526|  -10.776210|    2.043934|
|         459|  2.7349e+00|   -3.695295|   -3.848140|   -4.095678|   -4.095849|   -3.566052|  -10.776716|    2.052418|
|         460|  2.7346e+00|   -3.696731|   -3.849892|   -4.097220|   -4.097303|   -3.567622|  -10.777212|    2.060968|
|         461|  2.7344e+00|   -3.698212|   -3.851694|   -4.098832|   -4.098802|   -3.569241|  -10.777693|    2.069582|
|         462|  2.7341e+00|   -3.699733|   -3.853550|   -4.100514|   -4.100354|   -3.570913|  -10.778159|    2.078255|
|         463|  2.7338e+00|   -3.701293|   -3.855463|   -4.102270|   -4.101963|   -3.572643|  -10.778606|    2.086985|
|         464|  2.7335e+00|   -3.702885|   -3.857425|   -4.104090|   -4.103629|   -3.574422|  -10.779033|    2.095766|
|         465|  2.7332e+00|   -3.704503|   -3.859433|   -4.105969|   -4.105348|   -3.576246|  -10.779443|    2.104597|
|         466|  2.7328e+00|   -3.706160|   -3.861491|   -4.107912|   -4.107134|   -3.578128|  -10.779834|    2.113472|
|         467|  2.7325e+00|   -3.707853|   -3.863599|   -4.109914|   -4.108981|   -3.580060|  -10.780203|    2.122392|
|         468|  2.7322e+00|   -3.709572|   -3.865750|   -4.111962|   -4.110878|   -3.582029|  -10.780546|    2.131353|
|         469|  2.7320e+00|   -3.711325|   -3.867950|   -4.114061|   -4.112836|   -3.584044|  -10.780854|    2.140357|
|         470|  2.7317e+00|   -3.713119|   -3.870204|   -4.116213|   -4.114847|   -3.586107|  -10.781118|    2.149406|
|         471|  2.7314e+00|   -3.714951|   -3.872513|   -4.118408|   -4.116916|   -3.588214|  -10.781333|    2.158504|
|         472|  2.7310e+00|   -3.716819|   -3.874874|   -4.120642|   -4.119038|   -3.590363|  -10.781484|    2.167656|
|         473|  2.7308e+00|   -3.718733|   -3.877295|   -4.122926|   -4.121221|   -3.592565|  -10.781564|    2.176869|
|         474|  2.7305e+00|   -3.720690|   -3.879773|   -4.125257|   -4.123467|   -3.594815|  -10.781558|    2.186150|
|         475|  2.7302e+00|   -3.722693|   -3.882309|   -4.127642|   -4.125776|   -3.597115|  -10.781456|    2.195505|
|         476|  2.7299e+00|   -3.724748|   -3.884905|   -4.130089|   -4.128145|   -3.599468|  -10.781247|    2.204941|
|         477|  2.7296e+00|   -3.726861|   -3.887561|   -4.132602|   -4.130593|   -3.601887|  -10.780936|    2.214461|
|         478|  2.7293e+00|   -3.729040|   -3.890281|   -4.135188|   -4.133120|   -3.604373|  -10.780518|    2.224067|
|         479|  2.7290e+00|   -3.731272|   -3.893055|   -4.137835|   -4.135713|   -3.606910|  -10.779981|    2.233758|
|         480|  2.7287e+00|   -3.733552|   -3.895880|   -4.140528|   -4.138370|   -3.609489|  -10.779315|    2.243534|
|         481|  2.7285e+00|   -3.735886|   -3.898761|   -4.143271|   -4.141089|   -3.612116|  -10.778512|    2.253388|
|         482|  2.7282e+00|   -3.738271|   -3.901697|   -4.146051|   -4.143865|   -3.614787|  -10.777566|    2.263317|
|         483|  2.7280e+00|   -3.740716|   -3.904698|   -4.148880|   -4.146694|   -3.617515|  -10.776468|    2.273313|
|         484|  2.7277e+00|   -3.743222|   -3.907765|   -4.151748|   -4.149571|   -3.620302|  -10.775214|    2.283368|
|         485|  2.7275e+00|   -3.745786|   -3.910901|   -4.154657|   -4.152502|   -3.623146|  -10.773802|    2.293476|
|         486|  2.7273e+00|   -3.748419|   -3.914111|   -4.157620|   -4.155491|   -3.626062|  -10.772231|    2.303627|
|         487|  2.7271e+00|   -3.751114|   -3.917391|   -4.160643|   -4.158529|   -3.629042|  -10.770504|    2.313816|
|         488|  2.7267e+00|   -3.753869|   -3.920738|   -4.163723|   -4.161613|   -3.632081|  -10.768609|    2.324036|
|         489|  2.7265e+00|   -3.756684|   -3.924152|   -4.166868|   -4.164731|   -3.635179|  -10.766544|    2.334280|
|         490|  2.7261e+00|   -3.759550|   -3.927628|   -4.170072|   -4.167885|   -3.638325|  -10.764305|    2.344544|
|         491|  2.7258e+00|   -3.762471|   -3.931167|   -4.173332|   -4.171084|   -3.641519|  -10.761884|    2.354823|
|         492|  2.7255e+00|   -3.765455|   -3.934777|   -4.176649|   -4.174347|   -3.644776|  -10.759291|    2.365112|
|         493|  2.7252e+00|   -3.768508|   -3.938462|   -4.180029|   -4.177670|   -3.648099|  -10.756530|    2.375408|
|         494|  2.7249e+00|   -3.771616|   -3.942214|   -4.183460|   -4.181030|   -3.651467|  -10.753601|    2.385707|
|         495|  2.7245e+00|   -3.774778|   -3.946036|   -4.186937|   -4.184421|   -3.654879|  -10.750508|    2.396006|
|         496|  2.7242e+00|   -3.778000|   -3.949933|   -4.190461|   -4.187852|   -3.658342|  -10.747258|    2.406301|
|         497|  2.7239e+00|   -3.781283|   -3.953907|   -4.194024|   -4.191329|   -3.661860|  -10.743852|    2.416587|
|         498|  2.7236e+00|   -3.784629|   -3.957959|   -4.197625|   -4.194860|   -3.665437|  -10.740293|    2.426862|
|         499|  2.7234e+00|   -3.788032|   -3.962085|   -4.201259|   -4.198436|   -3.669061|  -10.736577|    2.437121|
|         500|  2.7232e+00|   -3.791492|   -3.966285|   -4.204930|   -4.202065|   -3.672737|  -10.732710|    2.447359|
|         501|  2.7229e+00|   -3.795010|   -3.970558|   -4.208648|   -4.205742|   -3.676469|  -10.728702|    2.457571|
|         502|  2.7226e+00|   -3.798580|   -3.974901|   -4.212405|   -4.209472|   -3.680250|  -10.724554|    2.467750|
|         503|  2.7224e+00|   -3.802200|   -3.979311|   -4.216203|   -4.213259|   -3.684081|  -10.720277|    2.477892|
|         504|  2.7221e+00|   -3.805872|   -3.983785|   -4.220044|   -4.217108|   -3.687962|  -10.715897|    2.487988|
|         505|  2.7218e+00|   -3.809592|   -3.988319|   -4.223930|   -4.221021|   -3.691889|  -10.711431|    2.498032|
|         506|  2.7215e+00|   -3.813361|   -3.992910|   -4.227861|   -4.224998|   -3.695862|  -10.706898|    2.508018|
|         507|  2.7212e+00|   -3.817177|   -3.997551|   -4.231839|   -4.229041|   -3.699874|  -10.702319|    2.517940|
|         508|  2.7210e+00|   -3.821034|   -4.002239|   -4.235859|   -4.233145|   -3.703921|  -10.697698|    2.527791|
|         509|  2.7208e+00|   -3.824931|   -4.006971|   -4.239919|   -4.237302|   -3.707998|  -10.693040|    2.537567|
|         510|  2.7205e+00|   -3.828874|   -4.011754|   -4.244025|   -4.241516|   -3.712116|  -10.688361|    2.547263|
|         511|  2.7201e+00|   -3.832859|   -4.016581|   -4.248174|   -4.245777|   -3.716265|  -10.683682|    2.556874|
|         512|  2.7198e+00|   -3.836881|   -4.021445|   -4.252371|   -4.250075|   -3.720443|  -10.679005|    2.566398|
|         513|  2.7195e+00|   -3.840942|   -4.026344|   -4.256608|   -4.254411|   -3.724653|  -10.674344|    2.575830|
|         514|  2.7192e+00|   -3.845045|   -4.031272|   -4.260892|   -4.258788|   -3.728896|  -10.669708|    2.585170|
|         515|  2.7189e+00|   -3.849182|   -4.036222|   -4.265215|   -4.263201|   -3.733162|  -10.665098|    2.594414|
|         516|  2.7186e+00|   -3.853344|   -4.041180|   -4.269569|   -4.267638|   -3.737437|  -10.660510|    2.603562|
|         517|  2.7183e+00|   -3.857533|   -4.046141|   -4.273958|   -4.272097|   -3.741725|  -10.655948|    2.612612|
|         518|  2.7180e+00|   -3.861764|   -4.051107|   -4.278380|   -4.276593|   -3.746044|  -10.651423|    2.621564|
|         519|  2.7177e+00|   -3.866019|   -4.056061|   -4.282816|   -4.281099|   -3.750367|  -10.646922|    2.630416|
|         520|  2.7173e+00|   -3.870304|   -4.061010|   -4.287274|   -4.285611|   -3.754702|  -10.642428|    2.639171|
|         521|  2.7171e+00|   -3.874634|   -4.065959|   -4.291771|   -4.290133|   -3.759070|  -10.637918|    2.647831|
|         522|  2.7167e+00|   -3.878996|   -4.070899|   -4.296278|   -4.294671|   -3.763453|  -10.633383|    2.656398|
|         523|  2.7165e+00|   -3.883386|   -4.075825|   -4.300787|   -4.299226|   -3.767847|  -10.628811|    2.664880|
|         524|  2.7162e+00|   -3.887791|   -4.080729|   -4.305290|   -4.303784|   -3.772237|  -10.624216|    2.673285|
|         525|  2.7160e+00|   -3.892222|   -4.085619|   -4.309784|   -4.308363|   -3.776644|  -10.619589|    2.681622|
|         526|  2.7157e+00|   -3.896671|   -4.090493|   -4.314269|   -4.312952|   -3.781061|  -10.614932|    2.689898|
|         527|  2.7155e+00|   -3.901134|   -4.095347|   -4.318747|   -4.317547|   -3.785487|  -10.610256|    2.698122|
|         528|  2.7152e+00|   -3.905607|   -4.100182|   -4.323216|   -4.322151|   -3.789922|  -10.605569|    2.706298|
|         529|  2.7149e+00|   -3.910097|   -4.104999|   -4.327697|   -4.326781|   -3.794376|  -10.600866|    2.714430|
|         530|  2.7146e+00|   -3.914586|   -4.109787|   -4.332188|   -4.331423|   -3.798831|  -10.596152|    2.722516|
|         531|  2.7143e+00|   -3.919069|   -4.114541|   -4.336692|   -4.336071|   -3.803283|  -10.591415|    2.730550|
|         532|  2.7140e+00|   -3.923551|   -4.119266|   -4.341222|   -4.340732|   -3.807743|  -10.586645|    2.738521|
|         533|  2.7137e+00|   -3.928031|   -4.123955|   -4.345783|   -4.345403|   -3.812212|  -10.581869|    2.746414|
|         534|  2.7134e+00|   -3.932506|   -4.128605|   -4.350373|   -4.350090|   -3.816684|  -10.577085|    2.754208|
|         535|  2.7133e+00|   -3.936977|   -4.133215|   -4.354994|   -4.354795|   -3.821162|  -10.572280|    2.761878|
|         536|  2.7129e+00|   -3.941447|   -4.137785|   -4.359651|   -4.359509|   -3.825645|  -10.567456|    2.769396|
|         537|  2.7127e+00|   -3.945917|   -4.142318|   -4.364351|   -4.364236|   -3.830136|  -10.562615|    2.776730|
|         538|  2.7125e+00|   -3.950388|   -4.146812|   -4.369080|   -4.368981|   -3.834632|  -10.557764|    2.783846|
[...]
|        6863|  2.7731e+00|   -7.943824|   -7.967741|   -8.358765|   -8.327354|   -7.793707|   -9.611493|    2.595347|
|        6864|  2.7731e+00|   -7.944758|   -7.970042|   -8.359945|   -8.328658|   -7.795241|   -9.612216|    2.595349|
|        6865|  2.7731e+00|   -7.945746|   -7.972448|   -8.361178|   -8.330027|   -7.796855|   -9.612883|    2.595352|
|        6866|  2.7730e+00|   -7.946788|   -7.974957|   -8.362463|   -8.331460|   -7.798544|   -9.613493|    2.595354|
|        6867|  2.7730e+00|   -7.947882|   -7.977565|   -8.363795|   -8.332954|   -7.800306|   -9.614047|    2.595357|
|        6868|  2.7730e+00|   -7.949026|   -7.980269|   -8.365172|   -8.334506|   -7.802138|   -9.614545|    2.595360|
|        6869|  2.7730e+00|   -7.950218|   -7.983065|   -8.366590|   -8.336112|   -7.804035|   -9.614987|    2.595363|
|        6870|  2.7730e+00|   -7.951455|   -7.985948|   -8.368046|   -8.337769|   -7.805995|   -9.615374|    2.595366|
|        6871|  2.7730e+00|   -7.952735|   -7.988915|   -8.369535|   -8.339472|   -7.808013|   -9.615707|    2.595369|
|        6872|  2.7730e+00|   -7.954056|   -7.991961|   -8.371052|   -8.341218|   -7.810083|   -9.615988|    2.595372|
|        6873|  2.7730e+00|   -7.955414|   -7.995080|   -8.372594|   -8.343002|   -7.812203|   -9.616217|    2.595375|
|        6874|  2.7730e+00|   -7.956805|   -7.998266|   -8.374154|   -8.344819|   -7.814366|   -9.616396|    2.595378|
|        6875|  2.7730e+00|   -7.958227|   -8.001515|   -8.375729|   -8.346665|   -7.816567|   -9.616526|    2.595381|
|        6876|  2.7730e+00|   -7.959676|   -8.004820|   -8.377313|   -8.348534|   -7.818801|   -9.616610|    2.595384|
|        6877|  2.7730e+00|   -7.961148|   -8.008174|   -8.378899|   -8.350420|   -7.821061|   -9.616649|    2.595387|
|        6878|  2.7730e+00|   -7.962638|   -8.011571|   -8.380484|   -8.352320|   -7.823341|   -9.616645|    2.595390|
|        6879|  2.7730e+00|   -7.964143|   -8.015004|   -8.382060|   -8.354225|   -7.825635|   -9.616600|    2.595393|
|        6880|  2.7730e+00|   -7.965657|   -8.018464|   -8.383622|   -8.356132|   -7.827937|   -9.616516|    2.595396|
|        6881|  2.7730e+00|   -7.967178|   -8.021945|   -8.385164|   -8.358033|   -7.830239|   -9.616396|    2.595399|
|        6882|  2.7730e+00|   -7.968699|   -8.025437|   -8.386679|   -8.359922|   -7.832535|   -9.616242|    2.595403|
|        6883|  2.7730e+00|   -7.970215|   -8.028933|   -8.388162|   -8.361793|   -7.834816|   -9.616055|    2.595406|
|        6884|  2.7730e+00|   -7.971723|   -8.032425|   -8.389606|   -8.363640|   -7.837077|   -9.615840|    2.595409|
|        6885|  2.7730e+00|   -7.973217|   -8.035902|   -8.391006|   -8.365457|   -7.839309|   -9.615597|    2.595412|
|        6886|  2.7730e+00|   -7.974692|   -8.039356|   -8.392354|   -8.367237|   -7.841505|   -9.615330|    2.595415|
|        6887|  2.7729e+00|   -7.976143|   -8.042778|   -8.393646|   -8.368973|   -7.843658|   -9.615040|    2.595418|
|        6888|  2.7729e+00|   -7.977565|   -8.046158|   -8.394875|   -8.370660|   -7.845761|   -9.614731|    2.595421|
|        6889|  2.7729e+00|   -7.978952|   -8.049488|   -8.396037|   -8.372292|   -7.847805|   -9.614404|    2.595425|
|        6890|  2.7729e+00|   -7.980301|   -8.052758|   -8.397125|   -8.373862|   -7.849785|   -9.614062|    2.595428|
|        6891|  2.7729e+00|   -7.981605|   -8.055958|   -8.398135|   -8.375365|   -7.851692|   -9.613707|    2.595431|
|        6892|  2.7729e+00|   -7.982861|   -8.059079|   -8.399062|   -8.376795|   -7.853521|   -9.613342|    2.595434|
|        6893|  2.7729e+00|   -7.984064|   -8.062114|   -8.399902|   -8.378147|   -7.855264|   -9.612968|    2.595437|
|        6894|  2.7729e+00|   -7.985209|   -8.065052|   -8.400650|   -8.379417|   -7.856917|   -9.612588|    2.595440|
|        6895|  2.7729e+00|   -7.986293|   -8.067886|   -8.401304|   -8.380600|   -7.858472|   -9.612204|    2.595443|
|        6896|  2.7729e+00|   -7.987311|   -8.070608|   -8.401861|   -8.381692|   -7.859926|   -9.611817|    2.595446|
|        6897|  2.7729e+00|   -7.988260|   -8.073210|   -8.402318|   -8.382690|   -7.861273|   -9.611430|    2.595448|
|        6898|  2.7728e+00|   -7.989137|   -8.075686|   -8.402672|   -8.383590|   -7.862510|   -9.611044|    2.595451|
|        6899|  2.7728e+00|   -7.989938|   -8.078030|   -8.402924|   -8.384389|   -7.863632|   -9.610661|    2.595454|
|        6900|  2.7728e+00|   -7.990662|   -8.080236|   -8.403072|   -8.385086|   -7.864637|   -9.610283|    2.595457|
+-----------------------------------------------------------------------+
|        File Writing Summary       |              Filename             |
+-----------------------------------------------------------------------+
|SU2 binary restart                 |restart_flow.dat                   |
|Paraview                           |flow.vtu                           |
|Paraview surface                   |surface_flow.vtu                   |
+-----------------------------------------------------------------------+
+--------------------------------------------------------------------------------------------------------------------+
|  Inner_Iter|   Time(sec)|    rms[Rho]|   rms[RhoU]|   rms[RhoV]|   rms[RhoW]|   rms[RhoE]|     rms[nu]|          CD|
+--------------------------------------------------------------------------------------------------------------------+
|        6901|  2.7745e+00|   -7.991305|   -8.082300|   -8.403116|   -8.385680|   -7.865523|   -9.609911|    2.595459|
|        6902|  2.7746e+00|   -7.991867|   -8.084218|   -8.403056|   -8.386168|   -7.866288|   -9.609547|    2.595462|
|        6903|  2.7746e+00|   -7.992345|   -8.085987|   -8.402893|   -8.386552|   -7.866931|   -9.609191|    2.595465|
|        6904|  2.7746e+00|   -7.992740|   -8.087605|   -8.402628|   -8.386830|   -7.867453|   -9.608845|    2.595467|
|        6905|  2.7746e+00|   -7.993050|   -8.089071|   -8.402265|   -8.387005|   -7.867853|   -9.608511|    2.595470|
|        6906|  2.7746e+00|   -7.993276|   -8.090384|   -8.401805|   -8.387077|   -7.868133|   -9.608188|    2.595472|
|        6907|  2.7746e+00|   -7.993419|   -8.091546|   -8.401251|   -8.387049|   -7.868294|   -9.607878|    2.595474|
|        6908|  2.7746e+00|   -7.993478|   -8.092558|   -8.400607|   -8.386922|   -7.868340|   -9.607582|    2.595477|
|        6909|  2.7746e+00|   -7.993455|   -8.093423|   -8.399877|   -8.386700|   -7.868274|   -9.607300|    2.595479|
|        6910|  2.7746e+00|   -7.993353|   -8.094144|   -8.399066|   -8.386386|   -7.868100|   -9.607033|    2.595481|
|        6911|  2.7746e+00|   -7.993174|   -8.094725|   -8.398179|   -8.385985|   -7.867821|   -9.606781|    2.595483|
|        6912|  2.7746e+00|   -7.992919|   -8.095172|   -8.397219|   -8.385500|   -7.867443|   -9.606545|    2.595485|
|        6913|  2.7746e+00|   -7.992593|   -8.095490|   -8.396194|   -8.384936|   -7.866971|   -9.606324|    2.595487|
|        6914|  2.7746e+00|   -7.992198|   -8.095685|   -8.395109|   -8.384299|   -7.866412|   -9.606120|    2.595489|
|        6915|  2.7746e+00|   -7.991738|   -8.095765|   -8.393969|   -8.383593|   -7.865771|   -9.605931|    2.595490|
|        6916|  2.7746e+00|   -7.991217|   -8.095736|   -8.392781|   -8.382825|   -7.865054|   -9.605758|    2.595492|
|        6917|  2.7746e+00|   -7.990639|   -8.095608|   -8.391551|   -8.382000|   -7.864269|   -9.605602|    2.595493|
|        6918|  2.7745e+00|   -7.990010|   -8.095387|   -8.390285|   -8.381124|   -7.863423|   -9.605460|    2.595495|
|        6919|  2.7745e+00|   -7.989332|   -8.095083|   -8.388990|   -8.380203|   -7.862522|   -9.605335|    2.595496|
|        6920|  2.7745e+00|   -7.988612|   -8.094703|   -8.387672|   -8.379244|   -7.861574|   -9.605224|    2.595498|
|        6921|  2.7745e+00|   -7.987854|   -8.094257|   -8.386337|   -8.378253|   -7.860586|   -9.605128|    2.595499|
|        6922|  2.7745e+00|   -7.987064|   -8.093753|   -8.384992|   -8.377236|   -7.859565|   -9.605046|    2.595500|
|        6923|  2.7745e+00|   -7.986245|   -8.093201|   -8.383643|   -8.376199|   -7.858519|   -9.604978|    2.595501|
|        6924|  2.7745e+00|   -7.985405|   -8.092608|   -8.382295|   -8.375149|   -7.857455|   -9.604922|    2.595502|
|        6925|  2.7745e+00|   -7.984548|   -8.091983|   -8.380956|   -8.374092|   -7.856380|   -9.604879|    2.595503|
|        6926|  2.7745e+00|   -7.983678|   -8.091335|   -8.379631|   -8.373034|   -7.855300|   -9.604848|    2.595504|
|        6927|  2.7745e+00|   -7.982802|   -8.090671|   -8.378325|   -8.371981|   -7.854222|   -9.604828|    2.595504|
|        6928|  2.7745e+00|   -7.981925|   -8.089999|   -8.377044|   -8.370938|   -7.853154|   -9.604818|    2.595505|
|        6929|  2.7745e+00|   -7.981051|   -8.089327|   -8.375793|   -8.369911|   -7.852101|   -9.604817|    2.595505|
|        6930|  2.7745e+00|   -7.980185|   -8.088662|   -8.374577|   -8.368906|   -7.851068|   -9.604825|    2.595506|
|        6931|  2.7745e+00|   -7.979333|   -8.088010|   -8.373402|   -8.367928|   -7.850063|   -9.604841|    2.595506|
|        6932|  2.7745e+00|   -7.978498|   -8.087377|   -8.372270|   -8.366981|   -7.849090|   -9.604864|    2.595506|
|        6933|  2.7745e+00|   -7.977686|   -8.086770|   -8.371188|   -8.366071|   -7.848155|   -9.604892|    2.595506|
|        6934|  2.7745e+00|   -7.976901|   -8.086194|   -8.370159|   -8.365201|   -7.847262|   -9.604926|    2.595506|
|        6935|  2.7745e+00|   -7.976147|   -8.085654|   -8.369186|   -8.364377|   -7.846417|   -9.604965|    2.595506|
|        6936|  2.7745e+00|   -7.975428|   -8.085154|   -8.368274|   -8.363602|   -7.845622|   -9.605007|    2.595506|
|        6937|  2.7745e+00|   -7.974747|   -8.084699|   -8.367426|   -8.362880|   -7.844883|   -9.605052|    2.595506|
|        6938|  2.7745e+00|   -7.974109|   -8.084291|   -8.366644|   -8.362215|   -7.844203|   -9.605099|    2.595506|
|        6939|  2.7745e+00|   -7.973517|   -8.083934|   -8.365932|   -8.361609|   -7.843585|   -9.605147|    2.595505|
|        6940|  2.7745e+00|   -7.972973|   -8.083631|   -8.365292|   -8.361066|   -7.843032|   -9.605196|    2.595505|
|        6941|  2.7745e+00|   -7.972481|   -8.083384|   -8.364727|   -8.360589|   -7.842546|   -9.605245|    2.595504|
|        6942|  2.7745e+00|   -7.972044|   -8.083195|   -8.364238|   -8.360179|   -7.842131|   -9.605292|    2.595503|
|        6943|  2.7744e+00|   -7.971663|   -8.083064|   -8.363827|   -8.359840|   -7.841788|   -9.605339|    2.595503|
|        6944|  2.7744e+00|   -7.971342|   -8.082992|   -8.363496|   -8.359572|   -7.841518|   -9.605383|    2.595502|
|        6945|  2.7744e+00|   -7.971082|   -8.082980|   -8.363246|   -8.359379|   -7.841324|   -9.605424|    2.595501|
|        6946|  2.7744e+00|   -7.970885|   -8.083028|   -8.363078|   -8.359261|   -7.841205|   -9.605463|    2.595500|
|        6947|  2.7744e+00|   -7.970752|   -8.083134|   -8.362994|   -8.359219|   -7.841164|   -9.605498|    2.595499|
|        6948|  2.7744e+00|   -7.970685|   -8.083298|   -8.362992|   -8.359254|   -7.841200|   -9.605529|    2.595498|
|        6949|  2.7744e+00|   -7.970685|   -8.083518|   -8.363075|   -8.359368|   -7.841313|   -9.605556|    2.595496|
|        6950|  2.7744e+00|   -7.970753|   -8.083793|   -8.363241|   -8.359561|   -7.841503|   -9.605579|    2.595495|
|        6951|  2.7744e+00|   -7.970888|   -8.084119|   -8.363492|   -8.359832|   -7.841770|   -9.605598|    2.595494|
|        6952|  2.7744e+00|   -7.971093|   -8.084494|   -8.363825|   -8.360182|   -7.842113|   -9.605612|    2.595492|
|        6953|  2.7744e+00|   -7.971366|   -8.084915|   -8.364242|   -8.360611|   -7.842531|   -9.605621|    2.595491|
|        6954|  2.7744e+00|   -7.971707|   -8.085378|   -8.364740|   -8.361117|   -7.843023|   -9.605626|    2.595489|
|        6955|  2.7744e+00|   -7.972117|   -8.085879|   -8.365319|   -8.361701|   -7.843586|   -9.605626|    2.595487|
|        6956|  2.7744e+00|   -7.972595|   -8.086414|   -8.365978|   -8.362362|   -7.844219|   -9.605623|    2.595486|
|        6957|  2.7744e+00|   -7.973139|   -8.086977|   -8.366715|   -8.363097|   -7.844919|   -9.605615|    2.595484|
|        6958|  2.7744e+00|   -7.973749|   -8.087564|   -8.367528|   -8.363906|   -7.845685|   -9.605604|    2.595482|
|        6959|  2.7744e+00|   -7.974424|   -8.088170|   -8.368415|   -8.364788|   -7.846513|   -9.605589|    2.595480|
|        6960|  2.7744e+00|   -7.975161|   -8.088788|   -8.369374|   -8.365739|   -7.847400|   -9.605572|    2.595478|
|        6961|  2.7743e+00|   -7.975960|   -8.089412|   -8.370403|   -8.366758|   -7.848343|   -9.605553|    2.595476|
|        6962|  2.7743e+00|   -7.976819|   -8.090037|   -8.371498|   -8.367844|   -7.849338|   -9.605532|    2.595474|
|        6963|  2.7743e+00|   -7.977734|   -8.090655|   -8.372658|   -8.368992|   -7.850381|   -9.605510|    2.595472|
|        6964|  2.7743e+00|   -7.978704|   -8.091261|   -8.373879|   -8.370201|   -7.851469|   -9.605488|    2.595470|
|        6965|  2.7743e+00|   -7.979726|   -8.091847|   -8.375157|   -8.371467|   -7.852596|   -9.605467|    2.595468|
|        6966|  2.7743e+00|   -7.980798|   -8.092406|   -8.376489|   -8.372787|   -7.853759|   -9.605447|    2.595465|
|        6967|  2.7743e+00|   -7.981916|   -8.092931|   -8.377872|   -8.374158|   -7.854952|   -9.605430|    2.595463|
|        6968|  2.7743e+00|   -7.983077|   -8.093416|   -8.379301|   -8.375577|   -7.856171|   -9.605415|    2.595461|
|        6969|  2.7743e+00|   -7.984278|   -8.093853|   -8.380772|   -8.377038|   -7.857410|   -9.605405|    2.595459|
|        6970|  2.7743e+00|   -7.985514|   -8.094236|   -8.382282|   -8.378539|   -7.858664|   -9.605400|    2.595456|
|        6971|  2.7743e+00|   -7.986784|   -8.094558|   -8.383825|   -8.380076|   -7.859928|   -9.605401|    2.595454|
|        6972|  2.7743e+00|   -7.988081|   -8.094812|   -8.385397|   -8.381643|   -7.861196|   -9.605409|    2.595451|
|        6973|  2.7743e+00|   -7.989403|   -8.094993|   -8.386994|   -8.383236|   -7.862462|   -9.605426|    2.595449|
|        6974|  2.7743e+00|   -7.990745|   -8.095093|   -8.388610|   -8.384851|   -7.863721|   -9.605452|    2.595447|
|        6975|  2.7743e+00|   -7.992103|   -8.095109|   -8.390240|   -8.386483|   -7.864966|   -9.605489|    2.595444|
|        6976|  2.7743e+00|   -7.993472|   -8.095033|   -8.391880|   -8.388127|   -7.866192|   -9.605538|    2.595442|
|        6977|  2.7743e+00|   -7.994848|   -8.094863|   -8.393523|   -8.389778|   -7.867393|   -9.605599|    2.595439|
|        6978|  2.7743e+00|   -7.996226|   -8.094593|   -8.395166|   -8.391431|   -7.868563|   -9.605675|    2.595437|
|        6979|  2.7743e+00|   -7.997601|   -8.094220|   -8.396802|   -8.393080|   -7.869697|   -9.605766|    2.595434|
|        6980|  2.7743e+00|   -7.998969|   -8.093741|   -8.398427|   -8.394720|   -7.870789|   -9.605873|    2.595432|
|        6981|  2.7742e+00|   -8.000324|   -8.093154|   -8.400034|   -8.396347|   -7.871833|   -9.605997|    2.595429|

----------------------------- Solver Exit -------------------------------
All convergence criteria satisfied.
+-----------------------------------------------------------------------+
|      Convergence Field     |     Value    |   Criterion  |  Converged |
+-----------------------------------------------------------------------+
|                    rms[Rho]|      -8.00032|          < -8|         Yes|
+-----------------------------------------------------------------------+
-------------------------------------------------------------------------
+-----------------------------------------------------------------------+
|        File Writing Summary       |              Filename             |
+-----------------------------------------------------------------------+
|SU2 binary restart                 |restart_flow.dat                   |
|Paraview                           |flow.vtu                           |
|Paraview surface                   |surface_flow.vtu                   |
+-----------------------------------------------------------------------+

------------------------- Solver Postprocessing -------------------------
Deleted CNumerics container.
Deleted CIntegration container.
Deleted CSolver container.
Deleted CIteration container.
Deleted CInterface container.
Deleted CGeometry container.
Deleted CFreeFormDefBox class.
Deleted CSurfaceMovement class.
Deleted CVolumetricMovement class.
Deleted CConfig container.
Deleted nInst container.
Deleted COutput class.
-------------------------------------------------------------------------

------------------------- Exit Success (SU2_CFD) ------------------------


scontrol show job 1228490
JobId=1228490 JobName=m1.5_medium
   UserId=anthonyy(3152141) GroupId=anthonyy(3152141) MCS_label=N/A
   Priority=659243 Nice=0 Account=rrg-jphickey QOS=normal
   JobState=COMPLETING Reason=None Dependency=(null)
   Requeue=0 Restarts=0 BatchFlag=1 Reboot=0 ExitCode=0:0
   RunTime=05:26:11 TimeLimit=18:00:00 TimeMin=N/A
   SubmitTime=2026-03-25T02:35:46 EligibleTime=2026-03-25T02:35:46
   AccrueTime=2026-03-25T02:35:46
   StartTime=2026-03-25T17:02:04 EndTime=2026-03-25T22:28:15 Deadline=N/A
   SuspendTime=None SecsPreSuspend=0 LastSchedEval=2026-03-25T17:02:04 Scheduler=Main
   Partition=compute AllocNode:Sid=tri-login01:1156378
   ReqNodeList=(null) ExcNodeList=(null)
   NodeList=tri[0739,0741]
   BatchHost=tri0739
   NumNodes=2 NumCPUs=384 NumTasks=128 CPUs/Task=1 ReqB:S:C:T=0:0:*:*
   ReqTRES=cpu=384,mem=1534000M,node=2,billing=384
   AllocTRES=cpu=384,mem=1534000M,node=2,billing=384
   Socks/Node=* NtasksPerN:B:S:C=64:0:*:* CoreSpec=*
   MinCPUsNode=64 MinMemoryNode=0 MinTmpDiskNode=0
   Features=(null) DelayBoot=00:00:00
   OverSubscribe=NO Contiguous=0 Licenses=(null) LicensesAlloc=(null) Network=(null)
   Command=/scratch/anthonyy/reentry/orion/config/run.sh
   SubmitLine=SBATCH --comment /opt/slurm/bin/sbatch --export=NONE --get-user-env --job-name m1.5_medium --nodes 2 --ntasks-per-node 64 --cpus-per-task 1 --mem 0 --time 18:00:00 --account rrg-jphickey --output orion_%j.out --error orion_%j.err --chdir /scratch/anthonyy/reentry/orion/cases/m1.5_medium /scratch/anthonyy/reentry/orion/config/run.sh /scratch/anthonyy/reentry/orion/config/generated/m1.5_medium.cfg --export=NONE --get-user-env --job-name m1.5_medium --nodes 2 --ntasks-per-node 64 --cpus-per-task 1 --mem 0 --time 18:00:00 --account rrg-jphickey --output orion_%j.out --error orion_%j.err --chdir /scratch/anthonyy/reentry/orion/cases/m1.5_medium /scratch/anthonyy/reentry/orion/config/run.sh /scratch/anthonyy/reentry/orion/config/generated/m1.5_medium.cfg
   WorkDir=/scratch/anthonyy/reentry/orion/cases/m1.5_medium
   Comment=/opt/slurm/bin/sbatch --export=NONE --get-user-env --job-name m1.5_medium --nodes 2 --ntasks-per-node 64 --cpus-per-task 1 --mem 0 --time 18:00:00 --account rrg-jphickey --output orion_%j.out --error orion_%j.err --chdir /scratch/anthonyy/reentry/orion/cases/m1.5_medium /scratch/anthonyy/reentry/orion/config/run.sh /scratch/anthonyy/reentry/orion/config/generated/m1.5_medium.cfg
   StdErr=/scratch/anthonyy/reentry/orion/cases/m1.5_medium/orion_1228490.err
   StdIn=/dev/null
   StdOut=/scratch/anthonyy/reentry/orion/cases/m1.5_medium/orion_1228490.out
   TresPerTask=cpu=1

sacct -j 1228490
JobID           JobName    Account    Elapsed  MaxVMSize     MaxRSS  SystemCPU    UserCPU ExitCode 
------------ ---------- ---------- ---------- ---------- ---------- ---------- ---------- -------- 
1228490      m1.5_medi+ rrg-jphic+   05:26:11                         00:00:00   00:00:00      0:0 
1228490.bat+      batch rrg-jphic+   05:26:11                         00:00:00   00:00:00      0:0 
1228490.ext+     extern rrg-jphic+   05:26:11                         00:00:00   00:00:00      0:0 
1228490.0       SU2_CFD rrg-jphic+   05:26:04                         00:00:00   00:00:00      0:0 

