Nodes:  tri[0981,0985]
Tasks:  128
NPN:    64
Config: /scratch/anthonyy/reentry/orion/config/generated/m6_aoa50.cfg

-------------------------------------------------------------------------
|    ___ _   _ ___                                                      |
|   / __| | | |_  )   Release 7.5.1 "Blackbird"                         |
|   \__ \ |_| |/ /                                                      |
|   |___/\___//___|   Suite (Computational Fluid Dynamics Code)         |
|                                                                       |
-------------------------------------------------------------------------
| SU2 Project Website: https://su2code.github.io                        |
|                                                                       |
| The SU2 Project is maintained by the SU2 Foundation                   |
| (http://su2foundation.org)                                            |
-------------------------------------------------------------------------
| Copyright 2012-2023, SU2 Contributors                                 |
|                                                                       |
| SU2 is free software; you can redistribute it and/or                  |
| modify it under the terms of the GNU Lesser General Public            |
| License as published by the Free Software Foundation; either          |
| version 2.1 of the License, or (at your option) any later version.    |
|                                                                       |
| SU2 is distributed in the hope that it will be useful,                |
| but WITHOUT ANY WARRANTY; without even the implied warranty of        |
| MERCHANTABILITY or FITNESS FOR A PARTICULAR PURPOSE. See the GNU      |
| Lesser General Public License for more details.                       |
|                                                                       |
| You should have received a copy of the GNU Lesser General Public      |
| License along with SU2. If not, see <http://www.gnu.org/licenses/>.   |
-------------------------------------------------------------------------

Parsing config file for zone 0

----------------- Physical Case Definition ( Zone 0 ) -------------------
Compressible RANS equations.
Turbulence model: Spalart-Allmaras-noft2
Hybrid RANS/LES: No Hybrid RANS/LES
Mach number: 6.
Angle of attack (AoA): 50 deg, and angle of sideslip (AoS): 0 deg.
Reynolds number: 6.86229e+08. Reference length 5.
Reading and writing binary SU2 native restart files.
Read flow solution from: restart_flow.dat.
Non-Dimensional simulation (V=1.0, Rho=1.0, T=1.0 at the farfield).
The reference area will be computed using y(2D) or z(3D) projection.
The semi-span will be computed using the max y(3D) value.
The reference length is 0.64607 m.
Reference origin for moment evaluation is (0.25, 0, 0).
Surface(s) where the force coefficients are evaluated: ORION_SURFACE.

Input mesh file name: ../../mesh/fine.su2

--------------- Space Numerical Integration ( Zone 0 ) ------------------
Jameson-Schmidt-Turkel scheme (2nd order in space) for the flow inviscid terms.
JST viscous coefficients (2nd & 4th): 0.5, 0.02.
The method includes a grid stretching correction (p = 0.3).
Scalar upwind solver for the turbulence model.
First order integration in space.
Average of gradients with correction (viscous flow terms).
Average of gradients with correction (viscous turbulence terms).
Gradient for upwind reconstruction: Green-Gauss.
Gradient for viscous and source terms: Green-Gauss.

--------------- Time Numerical Integration  ( Zone 0 ) ------------------
Local time stepping (steady state simulation).
Euler implicit method for the flow equations.
FGMRES is used for solving the linear system.
Using a ILU(0) preconditioning.
Convergence criteria of the linear solver: 1e-06.
Max number of linear iterations: 100.
CFL adaptation. Factor down: 0.5, factor up: 1.1,
                lower limit: 0.05, upper limit: 0.5,
                acceptable linear residual: 0.001.
Courant-Friedrichs-Lewy number:     0.03
Euler implicit time integration for the turbulence model.

------------------ Convergence Criteria  ( Zone 0 ) ---------------------
Maximum number of solver subiterations: 999999.
Begin convergence monitoring at iteration 5.
Residual minimum value: 1e-8.
Cauchy series min. value: 1e-10.
Number of Cauchy elements: 100.
Begin windowed time average at iteration 0.

-------------------- Output Information ( Zone 0 ) ----------------------
File writing frequency: 
+------------------------------------+
|                     File| Frequency|
+------------------------------------+
|                  RESTART|       150|
|                 PARAVIEW|       150|
|         SURFACE_PARAVIEW|       150|
+------------------------------------+
Writing the convergence history file every 1 inner iterations.
Writing the screen convergence history every 1 inner iterations.
The tabular file format is CSV (.csv).
Convergence history file name: history.
Forces breakdown file name: forces_breakdown.dat.
Surface file name: surface_flow.
Volume file name: flow.
Restart file name: restart_flow.

------------- Config File Boundary Information ( Zone 0 ) ---------------
+-----------------------------------------------------------------------+
|                        Marker Type|                        Marker Name|
+-----------------------------------------------------------------------+
|                          Far-field|                           FARFIELD|
+-----------------------------------------------------------------------+
|                     Heat flux wall|                      ORION_SURFACE|
+-----------------------------------------------------------------------+

-------------------- Output Preprocessing ( Zone 0 ) --------------------

WARNING: SURFACE_PRESSURE_DROP can only be computed for at least 2 surfaces (outlet, inlet, ...)

Screen output fields: INNER_ITER, WALL_TIME, RMS_DENSITY, RMS_MOMENTUM-X, RMS_MOMENTUM-Y, RMS_MOMENTUM-Z, RMS_ENERGY, RMS_NU_TILDE, DRAG
History output group(s): ITER, RMS_RES
Convergence field(s): RMS_DENSITY
Warning: No (valid) fields chosen for time convergence monitoring. Time convergence monitoring inactive.
Volume output fields: MACH, PRESSURE, TEMPERATURE, DENSITY, HEAT_FLUX, Y_PLUS, COORDINATES, SOLUTION

------------------- Geometry Preprocessing ( Zone 0 ) -------------------
Three dimensional problem.
62211324 grid points before partitioning.
190879888 volume elements before partitioning.
2 surface markers.
4104 boundary elements in index 0 (Marker = FARFIELD).
1824836 boundary elements in index 1 (Marker = ORION_SURFACE).
Executing the partitioning functions.
Building the graph adjacency structure.
Calling ParMETIS... graph partitioning complete (4959327 edge cuts).
Distributing ParMETIS coloring.
Rebalancing vertices.
Rebalancing volume element connectivity.
Rebalancing markers and surface elements.
66952290 vertices including ghost points. 
197997438 interior elements including halo cells. 
103171259 tetrahedra.
94500655 prisms.
325524 pyramids.
Establishing MPI communication patterns.
Setting point connectivity.
Renumbering points (Reverse Cuthill McKee Ordering).
Recomputing point connectivity.
Setting element connectivity.
Checking the numerical grid orientation.
All volume elements are correctly orientend.
All surface elements are correctly orientend.
Identifying edges and vertices.
Setting the control volume structure.
Volume of the computational grid: 535693.
Searching for the closest normal neighbors to the surfaces.
Storing a mapping from global to local point index.
Compute the surface curvature.
Max K: 132.896. Mean K: 3.9104. Standard deviation K: 7.49569.
Checking for periodicity.
Computing mesh quality statistics for the dual control volumes.
+--------------------------------------------------------------+
|           Mesh Quality Metric|        Minimum|        Maximum|
+--------------------------------------------------------------+
|    Orthogonality Angle (deg.)|        53.0661|             90|
|     CV Face Area Aspect Ratio|        1.01143|        75298.5|
|           CV Sub-Volume Ratio|        1.00029|        45.0258|
+--------------------------------------------------------------+
Finding max control volume width.
Communicating number of neighbors.
Reference area = 11.531 m^2.
Semi-span length = 2.49999 m.
Wetted area = 57.9072 m^2.
Area projection in the x-plane = 19.6343 m^2, y-plane = 11.531 m^2, z-plane = 11.531 m^2.
Max. coordinate in the x-direction = 2.575 m, y-direction = 2.49999 m, z-direction = 2.49999 m.
Min. coordinate in the x-direction = -0.71 m, y-direction = -2.49999 m, z-direction = -2.5 m.
Computing wall distances.

-------------------- Solver Preprocessing ( Zone 0 ) --------------------
Viscous flow: Computing pressure using the ideal gas law
based on the free-stream temperature and a density computed
from the Reynolds number.
Force coefficients computed using free-stream values.

-- Models:
+------------------------------------------------------------------------------+
|          Viscosity Model|        Conductivity Model|              Fluid Model|
+------------------------------------------------------------------------------+
|               SUTHERLAND|          CONSTANT_PRANDTL|             STANDARD_AIR|
+------------------------------------------------------------------------------+
-- Fluid properties:
+------------------------------------------------------------------------------+
|                  Name|    Dim. value|    Ref. value|      Unit|Non-dim. value|
+------------------------------------------------------------------------------+
|        Ref. Viscosity|     1.716e-05|       2455.73|   N.s/m^2|   6.98773e-09|
|      Sutherland Temp.|        273.15|        288.15|         K|      0.947944|
|     Sutherland Const.|         110.4|        288.15|         K|      0.383134|
+------------------------------------------------------------------------------+
|        Prandtl (Lam.)|             -|             -|         -|          0.72|
|       Prandtl (Turb.)|             -|             -|         -|           0.9|
+------------------------------------------------------------------------------+
|          Gas Constant|       287.058|       14467.7|  N.m/kg.K|     0.0198413|
|      Spec. Heat Ratio|             -|             -|         -|           1.4|
+------------------------------------------------------------------------------+
-- Initial and free-stream conditions:
+------------------------------------------------------------------------------+
|                  Name|    Dim. value|    Ref. value|      Unit|Non-dim. value|
+------------------------------------------------------------------------------+
|       Static Pressure|       99485.6|   5.01407e+06|        Pa|     0.0198413|
|               Density|       1.20274|       1.20274|    kg/m^3|             1|
|           Temperature|        288.15|        288.15|         K|             1|
|          Total Energy|   2.29123e+06|   4.16887e+06|   m^2/s^2|      0.549603|
|            Velocity-X|       1312.43|       2041.78|       m/s|      0.642788|
|            Velocity-Y|             0|       2041.78|       m/s|             0|
|            Velocity-Z|        1564.1|       2041.78|       m/s|      0.766044|
|    Velocity Magnitude|       2041.78|       2041.78|       m/s|             1|
+------------------------------------------------------------------------------+
|             Viscosity|    1.7893e-05|       2455.73|   N.s/m^2|    7.2862e-09|
|          Conductivity|             -|   3.55289e+07|   W/m^2.K|             -|
|     Turb. Kin. Energy|       15633.3|   4.16887e+06|   m^2/s^2|       0.00375|
|     Spec. Dissipation|   1.05085e+08|       2041.78|       1/s|       51467.1|
+------------------------------------------------------------------------------+
|           Mach Number|             -|             -|         -|             6|
|       Reynolds Number|             -|             -|         -|   6.86229e+08|
+------------------------------------------------------------------------------+
Initialize Jacobian structure (Navier-Stokes). MG level: 0.
Initialize Jacobian structure (SA model).

------------------- Numerics Preprocessing ( Zone 0 ) -------------------

----------------- Integration Preprocessing ( Zone 0 ) ------------------

------------------- Iteration Preprocessing ( Zone 0 ) ------------------
Euler/Navier-Stokes/RANS fluid iteration.

------------------------------ Begin Solver -----------------------------

Simulation Run using the Single-zone Driver
WARNING: SU2 was not compiled for an AVX-capable architecture. Performance could be better,
         see https://su2code.github.io/docs_v7/Build-SU2-Linux-MacOS/#compiler-optimizations
+--------------------------------------------------------------------------------------------------------------------+
|  Inner_Iter|   Time(sec)|    rms[Rho]|   rms[RhoU]|   rms[RhoV]|   rms[RhoW]|   rms[RhoE]|     rms[nu]|          CD|
+--------------------------------------------------------------------------------------------------------------------+
|           0|  6.1172e+00|   -5.585842|   -5.830079|   -6.294790|   -5.688065|   -5.823062|   -8.001683|    1.080453|
|           1|  5.2543e+00|   -5.585894|   -5.830126|   -6.294837|   -5.688136|   -5.823143|   -8.001661|    1.080453|
|           2|  4.9314e+00|   -5.585978|   -5.830203|   -6.294910|   -5.688252|   -5.823275|   -8.001700|    1.080452|
|           3|  4.7775e+00|   -5.586069|   -5.830288|   -6.294990|   -5.688378|   -5.823420|   -8.001744|    1.080451|
|           4|  4.6829e+00|   -5.586169|   -5.830380|   -6.295076|   -5.688516|   -5.823577|   -8.001791|    1.080450|
|           5|  4.6160e+00|   -5.586277|   -5.830481|   -6.295168|   -5.688667|   -5.823749|   -8.001844|    1.080450|
|           6|  4.5712e+00|   -5.586395|   -5.830591|   -6.295267|   -5.688832|   -5.823936|   -8.001902|    1.080449|
|           7|  4.5344e+00|   -5.586523|   -5.830710|   -6.295373|   -5.689011|   -5.824140|   -8.001965|    1.080448|
|           8|  4.5472e+00|   -5.586661|   -5.830841|   -6.295486|   -5.689207|   -5.824362|   -8.002035|    1.080447|
|           9|  4.5373e+00|   -5.586811|   -5.830982|   -6.295605|   -5.689420|   -5.824602|   -8.002113|    1.080445|
|          10|  4.5235e+00|   -5.586973|   -5.831136|   -6.295732|   -5.689651|   -5.824863|   -8.002198|    1.080444|
|          11|  4.5424e+00|   -5.587147|   -5.831302|   -6.295866|   -5.689903|   -5.825145|   -8.002292|    1.080443|
|          12|  4.5581e+00|   -5.587334|   -5.831482|   -6.296006|   -5.690175|   -5.825451|   -8.002395|    1.080441|
|          13|  4.5696e+00|   -5.587535|   -5.831676|   -6.296152|   -5.690470|   -5.825780|   -8.002509|    1.080439|
|          14|  4.5843e+00|   -5.587750|   -5.831885|   -6.296303|   -5.690789|   -5.826134|   -8.002635|    1.080437|
|          15|  4.5967e+00|   -5.587978|   -5.832108|   -6.296458|   -5.691133|   -5.826514|   -8.002774|    1.080435|
|          16|  4.6064e+00|   -5.588220|   -5.832347|   -6.296615|   -5.691503|   -5.826921|   -8.002928|    1.080433|
|          17|  4.6180e+00|   -5.588475|   -5.832600|   -6.296773|   -5.691900|   -5.827355|   -8.003097|    1.080431|
|          18|  4.6269e+00|   -5.588743|   -5.832868|   -6.296929|   -5.692324|   -5.827816|   -8.003285|    1.080428|
|          19|  4.6350e+00|   -5.589021|   -5.833148|   -6.297080|   -5.692776|   -5.828302|   -8.003492|    1.080425|
|          20|  4.6433e+00|   -5.589307|   -5.833439|   -6.297223|   -5.693255|   -5.828814|   -8.003721|    1.080422|
|          21|  4.6676e+00|   -5.589598|   -5.833738|   -6.297354|   -5.693760|   -5.829347|   -8.003975|    1.080419|
|          22|  4.6891e+00|   -5.589889|   -5.834041|   -6.297466|   -5.694289|   -5.829898|   -8.004257|    1.080415|
|          23|  4.7090e+00|   -5.590174|   -5.834340|   -6.297555|   -5.694838|   -5.830461|   -8.004569|    1.080411|
|          24|  4.7280e+00|   -5.590445|   -5.834629|   -6.297614|   -5.695402|   -5.831028|   -8.004916|    1.080407|
|          25|  4.7457e+00|   -5.590691|   -5.834896|   -6.297633|   -5.695975|   -5.831589|   -8.005302|    1.080402|
|          26|  4.7640e+00|   -5.590900|   -5.835127|   -6.297606|   -5.696546|   -5.832130|   -8.005845|    1.080398|
|          27|  4.7814e+00|   -5.591078|   -5.835322|   -6.297569|   -5.697097|   -5.832646|   -8.006421|    1.080393|
|          28|  4.7991e+00|   -5.591230|   -5.835484|   -6.297532|   -5.697625|   -5.833139|   -8.007002|    1.080389|
|          29|  4.8148e+00|   -5.591355|   -5.835612|   -6.297495|   -5.698130|   -5.833608|   -8.007588|    1.080385|
|          30|  4.8287e+00|   -5.591453|   -5.835708|   -6.297457|   -5.698614|   -5.834055|   -8.008178|    1.080381|
|          31|  4.8411e+00|   -5.591525|   -5.835771|   -6.297418|   -5.699075|   -5.834478|   -8.008774|    1.080377|
|          32|  4.8544e+00|   -5.591571|   -5.835802|   -6.297378|   -5.699513|   -5.834879|   -8.009373|    1.080373|
|          33|  4.8675e+00|   -5.591592|   -5.835801|   -6.297337|   -5.699930|   -5.835259|   -8.009978|    1.080369|
|          34|  4.8803e+00|   -5.591588|   -5.835770|   -6.297295|   -5.700326|   -5.835617|   -8.010586|    1.080366|
|          35|  4.8902e+00|   -5.591558|   -5.835709|   -6.297251|   -5.700701|   -5.835955|   -8.011199|    1.080362|
|          36|  4.8986e+00|   -5.591505|   -5.835619|   -6.297205|   -5.701055|   -5.836273|   -8.011817|    1.080359|
|          37|  4.9074e+00|   -5.591428|   -5.835500|   -6.297158|   -5.701388|   -5.836571|   -8.012439|    1.080356|
|          38|  4.9168e+00|   -5.591327|   -5.835353|   -6.297107|   -5.701702|   -5.836850|   -8.013065|    1.080352|
|          39|  4.9226e+00|   -5.591203|   -5.835178|   -6.297055|   -5.701995|   -5.837110|   -8.013695|    1.080349|
|          40|  4.9296e+00|   -5.591057|   -5.834977|   -6.297000|   -5.702269|   -5.837352|   -8.014330|    1.080347|
|          41|  4.9352e+00|   -5.590889|   -5.834750|   -6.296942|   -5.702524|   -5.837576|   -8.014969|    1.080344|
|          42|  4.9424e+00|   -5.590700|   -5.834497|   -6.296880|   -5.702761|   -5.837784|   -8.015612|    1.080341|
|          43|  4.9498e+00|   -5.590490|   -5.834220|   -6.296816|   -5.702979|   -5.837975|   -8.016259|    1.080338|
|          44|  4.9563e+00|   -5.590259|   -5.833919|   -6.296748|   -5.703179|   -5.838149|   -8.016910|    1.080336|
|          45|  4.9617e+00|   -5.590008|   -5.833594|   -6.296676|   -5.703361|   -5.838308|   -8.017566|    1.080334|
|          46|  4.9663e+00|   -5.589738|   -5.833246|   -6.296601|   -5.703526|   -5.838452|   -8.018225|    1.080331|
|          47|  4.9717e+00|   -5.589449|   -5.832877|   -6.296522|   -5.703675|   -5.838581|   -8.018888|    1.080329|
|          48|  4.9758e+00|   -5.589142|   -5.832485|   -6.296440|   -5.703806|   -5.838696|   -8.019555|    1.080327|
|          49|  4.9807e+00|   -5.588817|   -5.832073|   -6.296353|   -5.703922|   -5.838797|   -8.020227|    1.080326|
|          50|  4.9861e+00|   -5.588475|   -5.831640|   -6.296262|   -5.704021|   -5.838884|   -8.020902|    1.080324|
|          51|  4.9917e+00|   -5.588115|   -5.831187|   -6.296167|   -5.704104|   -5.838957|   -8.021581|    1.080322|
|          52|  4.9962e+00|   -5.587738|   -5.830714|   -6.296067|   -5.704172|   -5.839018|   -8.022263|    1.080321|
|          53|  5.0005e+00|   -5.587345|   -5.830223|   -6.295963|   -5.704224|   -5.839065|   -8.022950|    1.080319|
|          54|  5.0046e+00|   -5.586936|   -5.829712|   -6.295853|   -5.704261|   -5.839099|   -8.023640|    1.080318|
|          55|  5.0082e+00|   -5.586511|   -5.829184|   -6.295739|   -5.704283|   -5.839121|   -8.024334|    1.080317|
|          56|  5.0126e+00|   -5.586071|   -5.828637|   -6.295620|   -5.704289|   -5.839130|   -8.025032|    1.080316|
|          57|  5.0170e+00|   -5.585616|   -5.828073|   -6.295496|   -5.704281|   -5.839127|   -8.025733|    1.080315|
|          58|  5.0213e+00|   -5.585146|   -5.827492|   -6.295367|   -5.704259|   -5.839112|   -8.026438|    1.080314|
|          59|  5.0257e+00|   -5.584662|   -5.826894|   -6.295233|   -5.704222|   -5.839085|   -8.027147|    1.080313|
|          60|  5.0292e+00|   -5.584163|   -5.826279|   -6.295093|   -5.704170|   -5.839045|   -8.027859|    1.080313|
|          61|  5.0324e+00|   -5.583651|   -5.825648|   -6.294948|   -5.704104|   -5.838994|   -8.028575|    1.080312|
|          62|  5.0365e+00|   -5.583124|   -5.825001|   -6.294797|   -5.704024|   -5.838931|   -8.029295|    1.080312|
|          63|  5.0396e+00|   -5.582585|   -5.824339|   -6.294641|   -5.703929|   -5.838856|   -8.030018|    1.080312|
|          64|  5.0430e+00|   -5.582032|   -5.823661|   -6.294481|   -5.703821|   -5.838770|   -8.030744|    1.080312|
|          65|  5.0462e+00|   -5.581466|   -5.822968|   -6.294315|   -5.703699|   -5.838672|   -8.031474|    1.080312|
|          66|  5.0485e+00|   -5.580887|   -5.822260|   -6.294143|   -5.703563|   -5.838562|   -8.032207|    1.080312|
|          67|  5.0510e+00|   -5.580296|   -5.821538|   -6.293966|   -5.703413|   -5.838441|   -8.032944|    1.080312|
|          68|  5.0537e+00|   -5.579692|   -5.820801|   -6.293784|   -5.703249|   -5.838308|   -8.033684|    1.080312|
|          69|  5.0564e+00|   -5.579075|   -5.820050|   -6.293596|   -5.703071|   -5.838163|   -8.034428|    1.080313|
|          70|  5.0595e+00|   -5.578447|   -5.819285|   -6.293402|   -5.702880|   -5.838007|   -8.035174|    1.080314|
|          71|  5.0632e+00|   -5.577806|   -5.818506|   -6.293204|   -5.702674|   -5.837839|   -8.035925|    1.080314|
|          72|  5.0660e+00|   -5.577154|   -5.817714|   -6.292999|   -5.702455|   -5.837659|   -8.036678|    1.080315|
|          73|  5.0679e+00|   -5.576490|   -5.816908|   -6.292789|   -5.702222|   -5.837467|   -8.037435|    1.080316|
|          74|  5.0705e+00|   -5.575813|   -5.816090|   -6.292573|   -5.701975|   -5.837264|   -8.038195|    1.080317|
|          75|  5.0725e+00|   -5.575125|   -5.815258|   -6.292351|   -5.701714|   -5.837048|   -8.038958|    1.080318|
|          76|  5.0746e+00|   -5.574425|   -5.814413|   -6.292124|   -5.701439|   -5.836820|   -8.039724|    1.080320|
|          77|  5.0772e+00|   -5.573714|   -5.813556|   -6.291892|   -5.701150|   -5.836581|   -8.040494|    1.080321|
|          78|  5.0806e+00|   -5.572992|   -5.812687|   -6.291654|   -5.700847|   -5.836329|   -8.041267|    1.080323|
|          79|  5.0830e+00|   -5.572258|   -5.811806|   -6.291411|   -5.700531|   -5.836065|   -8.042043|    1.080324|
|          80|  5.0856e+00|   -5.571514|   -5.810913|   -6.291163|   -5.700201|   -5.835789|   -8.042822|    1.080326|
|          81|  5.0887e+00|   -5.570759|   -5.810008|   -6.290910|   -5.699857|   -5.835502|   -8.043604|    1.080328|
|          82|  5.0903e+00|   -5.569993|   -5.809093|   -6.290651|   -5.699499|   -5.835203|   -8.044389|    1.080330|
|          83|  5.0923e+00|   -5.569217|   -5.808166|   -6.290387|   -5.699128|   -5.834891|   -8.045177|    1.080332|
|          84|  5.0945e+00|   -5.568430|   -5.807228|   -6.290118|   -5.698744|   -5.834568|   -8.045969|    1.080334|
|          85|  5.0962e+00|   -5.567633|   -5.806279|   -6.289844|   -5.698346|   -5.834233|   -8.046763|    1.080337|
|          86|  5.0979e+00|   -5.566826|   -5.805319|   -6.289565|   -5.697934|   -5.833886|   -8.047560|    1.080339|
|          87|  5.0998e+00|   -5.566009|   -5.804349|   -6.289281|   -5.697508|   -5.833526|   -8.048361|    1.080342|
|          88|  5.1018e+00|   -5.565181|   -5.803368|   -6.288991|   -5.697069|   -5.833154|   -8.049164|    1.080345|
|          89|  5.1032e+00|   -5.564343|   -5.802377|   -6.288696|   -5.696617|   -5.832770|   -8.049971|    1.080347|
|          90|  5.1047e+00|   -5.563496|   -5.801376|   -6.288396|   -5.696151|   -5.832374|   -8.050780|    1.080350|
|          91|  5.1060e+00|   -5.562639|   -5.800365|   -6.288092|   -5.695672|   -5.831966|   -8.051592|    1.080353|
|          92|  5.1081e+00|   -5.561773|   -5.799345|   -6.287784|   -5.695179|   -5.831547|   -8.052408|    1.080357|
|          93|  5.1102e+00|   -5.560899|   -5.798316|   -6.287472|   -5.694674|   -5.831116|   -8.053226|    1.080360|
|          94|  5.1126e+00|   -5.560014|   -5.797278|   -6.287155|   -5.694156|   -5.830673|   -8.054047|    1.080363|
|          95|  5.1147e+00|   -5.559122|   -5.796231|   -6.286834|   -5.693626|   -5.830218|   -8.054871|    1.080367|
|          96|  5.1162e+00|   -5.558220|   -5.795175|   -6.286509|   -5.693082|   -5.829752|   -8.055697|    1.080371|
|          97|  5.1169e+00|   -5.557310|   -5.794112|   -6.286181|   -5.692526|   -5.829275|   -8.056527|    1.080375|
|          98|  5.1179e+00|   -5.556392|   -5.793040|   -6.285849|   -5.691958|   -5.828787|   -8.057359|    1.080378|
|          99|  5.1194e+00|   -5.555466|   -5.791960|   -6.285513|   -5.691378|   -5.828287|   -8.058195|    1.080382|
|         100|  5.1211e+00|   -5.554532|   -5.790872|   -6.285174|   -5.690785|   -5.827776|   -8.059033|    1.080387|
|         101|  5.1223e+00|   -5.553590|   -5.789777|   -6.284831|   -5.690181|   -5.827254|   -8.059874|    1.080391|
|         102|  5.1244e+00|   -5.552640|   -5.788674|   -6.284485|   -5.689564|   -5.826721|   -8.060717|    1.080395|
|         103|  5.1258e+00|   -5.551683|   -5.787564|   -6.284135|   -5.688936|   -5.826177|   -8.061563|    1.080400|
|         104|  5.1271e+00|   -5.550719|   -5.786448|   -6.283781|   -5.688296|   -5.825622|   -8.062412|    1.080404|
|         105|  5.1277e+00|   -5.549747|   -5.785324|   -6.283425|   -5.687644|   -5.825057|   -8.063264|    1.080409|
|         106|  5.1285e+00|   -5.548769|   -5.784194|   -6.283065|   -5.686981|   -5.824481|   -8.064118|    1.080414|
|         107|  5.1294e+00|   -5.547784|   -5.783058|   -6.282702|   -5.686308|   -5.823895|   -8.064975|    1.080419|
|         108|  5.1304e+00|   -5.546793|   -5.781916|   -6.282336|   -5.685623|   -5.823299|   -8.065835|    1.080424|
|         109|  5.1318e+00|   -5.545795|   -5.780768|   -6.281968|   -5.684928|   -5.822692|   -8.066697|    1.080429|
|         110|  5.1322e+00|   -5.544791|   -5.779614|   -6.281597|   -5.684221|   -5.822076|   -8.067562|    1.080435|
|         111|  5.1329e+00|   -5.543781|   -5.778455|   -6.281223|   -5.683504|   -5.821449|   -8.068429|    1.080440|
|         112|  5.1343e+00|   -5.542765|   -5.777290|   -6.280846|   -5.682777|   -5.820813|   -8.069299|    1.080446|
|         113|  5.1354e+00|   -5.541744|   -5.776121|   -6.280466|   -5.682040|   -5.820167|   -8.070171|    1.080451|
|         114|  5.1363e+00|   -5.540717|   -5.774947|   -6.280084|   -5.681292|   -5.819512|   -8.071046|    1.080457|
|         115|  5.1369e+00|   -5.539686|   -5.773768|   -6.279699|   -5.680536|   -5.818848|   -8.071923|    1.080463|
|         116|  5.1381e+00|   -5.538649|   -5.772585|   -6.279311|   -5.679769|   -5.818175|   -8.072803|    1.080469|
|         117|  5.1384e+00|   -5.537608|   -5.771398|   -6.278922|   -5.678994|   -5.817493|   -8.073685|    1.080475|
|         118|  5.1391e+00|   -5.536563|   -5.770208|   -6.278530|   -5.678210|   -5.816803|   -8.074570|    1.080482|
|         119|  5.1400e+00|   -5.535514|   -5.769014|   -6.278137|   -5.677417|   -5.816104|   -8.075457|    1.080488|
|         120|  5.1407e+00|   -5.534461|   -5.767817|   -6.277741|   -5.676616|   -5.815397|   -8.076346|    1.080495|
|         121|  5.1414e+00|   -5.533404|   -5.766616|   -6.277342|   -5.675806|   -5.814682|   -8.077238|    1.080501|
|         122|  5.1427e+00|   -5.532343|   -5.765413|   -6.276941|   -5.674988|   -5.813959|   -8.078132|    1.080508|
|         123|  5.1433e+00|   -5.531279|   -5.764207|   -6.276538|   -5.674162|   -5.813228|   -8.079028|    1.080515|
|         124|  5.1442e+00|   -5.530212|   -5.762998|   -6.276133|   -5.673329|   -5.812489|   -8.079927|    1.080522|
|         125|  5.1445e+00|   -5.529142|   -5.761787|   -6.275726|   -5.672488|   -5.811743|   -8.080828|    1.080529|
|         126|  5.1453e+00|   -5.528070|   -5.760575|   -6.275317|   -5.671640|   -5.810991|   -8.081731|    1.080536|
|         127|  5.1462e+00|   -5.526994|   -5.759360|   -6.274907|   -5.670785|   -5.810231|   -8.082637|    1.080544|
|         128|  5.1469e+00|   -5.525917|   -5.758144|   -6.274495|   -5.669923|   -5.809465|   -8.083545|    1.080551|
|         129|  5.1477e+00|   -5.524838|   -5.756927|   -6.274082|   -5.669055|   -5.808692|   -8.084454|    1.080559|
|         130|  5.1486e+00|   -5.523757|   -5.755708|   -6.273668|   -5.668181|   -5.807913|   -8.085367|    1.080566|
|         131|  5.1491e+00|   -5.522675|   -5.754489|   -6.273252|   -5.667301|   -5.807128|   -8.086281|    1.080574|
|         132|  5.1498e+00|   -5.521592|   -5.753269|   -6.272837|   -5.666416|   -5.806338|   -8.087197|    1.080582|
|         133|  5.1507e+00|   -5.520507|   -5.752050|   -6.272420|   -5.665525|   -5.805543|   -8.088116|    1.080590|
|         134|  5.1511e+00|   -5.519422|   -5.750830|   -6.272002|   -5.664629|   -5.804742|   -8.089037|    1.080598|
|         135|  5.1517e+00|   -5.518335|   -5.749610|   -6.271583|   -5.663727|   -5.803935|   -8.089959|    1.080606|
|         136|  5.1527e+00|   -5.517248|   -5.748390|   -6.271163|   -5.662821|   -5.803123|   -8.090884|    1.080615|
|         137|  5.1533e+00|   -5.516160|   -5.747170|   -6.270741|   -5.661910|   -5.802306|   -8.091811|    1.080623|
|         138|  5.1540e+00|   -5.515072|   -5.745950|   -6.270319|   -5.660994|   -5.801485|   -8.092741|    1.080632|
|         139|  5.1550e+00|   -5.513984|   -5.744732|   -6.269895|   -5.660074|   -5.800659|   -8.093672|    1.080640|
|         140|  5.1560e+00|   -5.512896|   -5.743515|   -6.269471|   -5.659150|   -5.799829|   -8.094605|    1.080649|
|         141|  5.1565e+00|   -5.511808|   -5.742298|   -6.269045|   -5.658222|   -5.798994|   -8.095540|    1.080658|
|         142|  5.1570e+00|   -5.510721|   -5.741083|   -6.268618|   -5.657290|   -5.798155|   -8.096477|    1.080667|
|         143|  5.1579e+00|   -5.509634|   -5.739869|   -6.268191|   -5.656355|   -5.797313|   -8.097417|    1.080676|
|         144|  5.1585e+00|   -5.508548|   -5.738657|   -6.267764|   -5.655417|   -5.796468|   -8.098358|    1.080686|
|         145|  5.1591e+00|   -5.507462|   -5.737446|   -6.267336|   -5.654476|   -5.795619|   -8.099301|    1.080695|
|         146|  5.1592e+00|   -5.506378|   -5.736238|   -6.266907|   -5.653532|   -5.794767|   -8.100247|    1.080704|
|         147|  5.1600e+00|   -5.505295|   -5.735032|   -6.266479|   -5.652585|   -5.793912|   -8.101194|    1.080714|
|         148|  5.1605e+00|   -5.504213|   -5.733827|   -6.266049|   -5.651636|   -5.793054|   -8.102143|    1.080724|
|         149|  5.1613e+00|   -5.503132|   -5.732625|   -6.265620|   -5.650684|   -5.792192|   -8.103094|    1.080733|
|         150|  5.1618e+00|   -5.502052|   -5.731425|   -6.265190|   -5.649729|   -5.791329|   -8.104047|    1.080743|
+-----------------------------------------------------------------------+
|        File Writing Summary       |              Filename             |
+-----------------------------------------------------------------------+
|SU2 binary restart                 |restart_flow.dat                   |
|Paraview                           |flow.vtu                           |
|Paraview surface                   |surface_flow.vtu                   |
+-----------------------------------------------------------------------+
+--------------------------------------------------------------------------------------------------------------------+
|  Inner_Iter|   Time(sec)|    rms[Rho]|   rms[RhoU]|   rms[RhoV]|   rms[RhoW]|   rms[RhoE]|     rms[nu]|          CD|
+--------------------------------------------------------------------------------------------------------------------+
|         151|  5.3040e+00|   -5.500975|   -5.730228|   -6.264760|   -5.648773|   -5.790463|   -8.105002|    1.080753|
|         152|  5.3063e+00|   -5.499899|   -5.729033|   -6.264330|   -5.647815|   -5.789594|   -8.105960|    1.080763|
|         153|  5.3076e+00|   -5.498824|   -5.727841|   -6.263900|   -5.646855|   -5.788723|   -8.106918|    1.080774|
|         154|  5.3088e+00|   -5.497752|   -5.726652|   -6.263470|   -5.645893|   -5.787851|   -8.107879|    1.080784|
|         155|  5.3087e+00|   -5.496682|   -5.725466|   -6.263040|   -5.644930|   -5.786976|   -8.108842|    1.080794|
|         156|  5.3083e+00|   -5.495614|   -5.724284|   -6.262610|   -5.643966|   -5.786100|   -8.109807|    1.080805|
|         157|  5.3082e+00|   -5.494548|   -5.723104|   -6.262180|   -5.643001|   -5.785222|   -8.110774|    1.080816|
|         158|  5.3080e+00|   -5.493484|   -5.721927|   -6.261750|   -5.642034|   -5.784343|   -8.111742|    1.080826|
|         159|  5.3084e+00|   -5.492423|   -5.720754|   -6.261319|   -5.641066|   -5.783461|   -8.112713|    1.080837|
|         160|  5.3082e+00|   -5.491364|   -5.719584|   -6.260889|   -5.640097|   -5.782579|   -8.113685|    1.080848|
|         161|  5.3075e+00|   -5.490308|   -5.718418|   -6.260459|   -5.639128|   -5.781695|   -8.114660|    1.080859|
|         162|  5.3074e+00|   -5.489254|   -5.717255|   -6.260026|   -5.638157|   -5.780810|   -8.115636|    1.080871|
|         163|  5.3075e+00|   -5.488202|   -5.716096|   -6.259594|   -5.637186|   -5.779923|   -8.116614|    1.080882|
|         164|  5.3070e+00|   -5.487154|   -5.714941|   -6.259163|   -5.636216|   -5.779037|   -8.117594|    1.080893|
|         165|  5.3069e+00|   -5.486109|   -5.713790|   -6.258733|   -5.635245|   -5.778150|   -8.118576|    1.080905|
|         166|  5.3062e+00|   -5.485068|   -5.712643|   -6.258304|   -5.634275|   -5.777262|   -8.119560|    1.080916|
|         167|  5.3059e+00|   -5.484029|   -5.711500|   -6.257876|   -5.633304|   -5.776374|   -8.120546|    1.080928|
|         168|  5.3053e+00|   -5.482995|   -5.710362|   -6.257449|   -5.632335|   -5.775487|   -8.121533|    1.080940|
|         169|  5.3045e+00|   -5.481964|   -5.709229|   -6.257023|   -5.631366|   -5.774599|   -8.122523|    1.080952|
|         170|  5.3042e+00|   -5.480936|   -5.708100|   -6.256599|   -5.630397|   -5.773712|   -8.123514|    1.080964|
|         171|  5.3035e+00|   -5.479912|   -5.706975|   -6.256175|   -5.629430|   -5.772825|   -8.124508|    1.080976|
|         172|  5.3029e+00|   -5.478892|   -5.705855|   -6.255753|   -5.628463|   -5.771938|   -8.125503|    1.080988|
|         173|  5.3023e+00|   -5.477876|   -5.704740|   -6.255331|   -5.627498|   -5.771052|   -8.126500|    1.081000|
|         174|  5.3016e+00|   -5.476864|   -5.703630|   -6.254911|   -5.626533|   -5.770167|   -8.127499|    1.081013|
|         175|  5.3011e+00|   -5.475855|   -5.702524|   -6.254490|   -5.625570|   -5.769281|   -8.128500|    1.081025|
|         176|  5.3007e+00|   -5.474850|   -5.701423|   -6.254071|   -5.624607|   -5.768397|   -8.129503|    1.081038|
|         177|  5.3005e+00|   -5.473849|   -5.700327|   -6.253651|   -5.623646|   -5.767512|   -8.130508|    1.081051|
|         178|  5.3002e+00|   -5.472852|   -5.699236|   -6.253232|   -5.622686|   -5.766629|   -8.131515|    1.081063|
|         179|  5.3002e+00|   -5.471859|   -5.698150|   -6.252814|   -5.621727|   -5.765746|   -8.132523|    1.081076|
|         180|  5.2999e+00|   -5.470870|   -5.697069|   -6.252397|   -5.620770|   -5.764864|   -8.133534|    1.081089|
|         181|  5.2994e+00|   -5.469886|   -5.695993|   -6.251981|   -5.619815|   -5.763984|   -8.134546|    1.081102|
|         182|  5.2990e+00|   -5.468905|   -5.694922|   -6.251565|   -5.618861|   -5.763104|   -8.135561|    1.081116|
|         183|  5.2984e+00|   -5.467929|   -5.693857|   -6.251150|   -5.617909|   -5.762226|   -8.136577|    1.081129|
|         184|  5.2978e+00|   -5.466958|   -5.692797|   -6.250737|   -5.616960|   -5.761350|   -8.137595|    1.081142|
|         185|  5.2975e+00|   -5.465992|   -5.691743|   -6.250326|   -5.616013|   -5.760475|   -8.138615|    1.081156|
|         186|  5.2974e+00|   -5.465030|   -5.690695|   -6.249915|   -5.615068|   -5.759603|   -8.139638|    1.081169|
|         187|  5.2972e+00|   -5.464073|   -5.689652|   -6.249506|   -5.614126|   -5.758732|   -8.140662|    1.081183|
|         188|  5.2970e+00|   -5.463121|   -5.688614|   -6.249098|   -5.613186|   -5.757862|   -8.141688|    1.081197|
|         189|  5.2966e+00|   -5.462173|   -5.687583|   -6.248692|   -5.612249|   -5.756995|   -8.142716|    1.081211|
|         190|  5.2959e+00|   -5.461230|   -5.686557|   -6.248287|   -5.611314|   -5.756130|   -8.143746|    1.081224|
|         191|  5.2955e+00|   -5.460292|   -5.685536|   -6.247883|   -5.610382|   -5.755266|   -8.144778|    1.081239|
|         192|  5.2950e+00|   -5.459359|   -5.684522|   -6.247480|   -5.609453|   -5.754405|   -8.145812|    1.081253|
|         193|  5.2947e+00|   -5.458432|   -5.683514|   -6.247080|   -5.608527|   -5.753547|   -8.146848|    1.081267|
|         194|  5.2944e+00|   -5.457507|   -5.682509|   -6.246680|   -5.607601|   -5.752688|   -8.147887|    1.081281|
|         195|  5.2940e+00|   -5.456586|   -5.681509|   -6.246279|   -5.606677|   -5.751830|   -8.148927|    1.081296|
|         196|  5.2938e+00|   -5.455671|   -5.680514|   -6.245880|   -5.605756|   -5.750974|   -8.149969|    1.081310|
|         197|  5.2936e+00|   -5.454761|   -5.679526|   -6.245483|   -5.604839|   -5.750122|   -8.151013|    1.081325|
|         198|  5.2934e+00|   -5.453855|   -5.678544|   -6.245088|   -5.603924|   -5.749271|   -8.152059|    1.081339|
|         199|  5.2929e+00|   -5.452955|   -5.677568|   -6.244694|   -5.603013|   -5.748424|   -8.153107|    1.081354|
|         200|  5.2924e+00|   -5.452061|   -5.676598|   -6.244302|   -5.602105|   -5.747579|   -8.154157|    1.081369|
|         201|  5.2921e+00|   -5.451171|   -5.675634|   -6.243912|   -5.601201|   -5.746736|   -8.155209|    1.081384|
|         202|  5.2921e+00|   -5.450287|   -5.674677|   -6.243524|   -5.600300|   -5.745897|   -8.156263|    1.081399|
|         203|  5.2918e+00|   -5.449409|   -5.673726|   -6.243138|   -5.599402|   -5.745061|   -8.157319|    1.081414|
|         204|  5.2912e+00|   -5.448536|   -5.672781|   -6.242754|   -5.598509|   -5.744228|   -8.158377|    1.081429|
|         205|  5.2910e+00|   -5.447670|   -5.671844|   -6.242375|   -5.597621|   -5.743400|   -8.159438|    1.081444|
|         206|  5.2906e+00|   -5.446810|   -5.670913|   -6.241998|   -5.596736|   -5.742575|   -8.160500|    1.081460|
|         207|  5.2904e+00|   -5.445955|   -5.669989|   -6.241623|   -5.595856|   -5.741754|   -8.161564|    1.081475|
|         208|  5.2902e+00|   -5.445106|   -5.669072|   -6.241251|   -5.594980|   -5.740936|   -8.162630|    1.081491|
|         209|  5.2902e+00|   -5.444263|   -5.668161|   -6.240881|   -5.594108|   -5.740122|   -8.163698|    1.081506|
|         210|  5.2897e+00|   -5.443426|   -5.667256|   -6.240513|   -5.593240|   -5.739311|   -8.164769|    1.081522|
|         211|  5.2895e+00|   -5.442593|   -5.666356|   -6.240147|   -5.592375|   -5.738501|   -8.165841|    1.081538|
|         212|  5.2893e+00|   -5.441765|   -5.665462|   -6.239783|   -5.591514|   -5.737696|   -8.166915|    1.081554|
|         213|  5.2893e+00|   -5.440945|   -5.664576|   -6.239423|   -5.590658|   -5.736895|   -8.167991|    1.081570|
|         214|  5.2898e+00|   -5.440130|   -5.663696|   -6.239065|   -5.589806|   -5.736097|   -8.169069|    1.081586|
|         215|  5.2897e+00|   -5.439321|   -5.662823|   -6.238710|   -5.588959|   -5.735304|   -8.170150|    1.081602|
|         216|  5.2897e+00|   -5.438517|   -5.661956|   -6.238358|   -5.588116|   -5.734514|   -8.171232|    1.081618|
|         217|  5.2897e+00|   -5.437720|   -5.661096|   -6.238009|   -5.587277|   -5.733728|   -8.172316|    1.081634|
|         218|  5.2898e+00|   -5.436929|   -5.660243|   -6.237662|   -5.586443|   -5.732946|   -8.173402|    1.081651|
|         219|  5.2896e+00|   -5.436144|   -5.659397|   -6.237320|   -5.585615|   -5.732169|   -8.174490|    1.081667|
|         220|  5.2896e+00|   -5.435366|   -5.658559|   -6.236981|   -5.584791|   -5.731397|   -8.175580|    1.081684|
|         221|  5.2896e+00|   -5.434594|   -5.657727|   -6.236645|   -5.583973|   -5.730629|   -8.176672|    1.081700|
|         222|  5.2895e+00|   -5.433828|   -5.656901|   -6.236312|   -5.583158|   -5.729864|   -8.177766|    1.081717|
|         223|  5.2894e+00|   -5.433068|   -5.656083|   -6.235982|   -5.582349|   -5.729104|   -8.178862|    1.081734|
|         224|  5.2891e+00|   -5.432313|   -5.655271|   -6.235654|   -5.581544|   -5.728348|   -8.179960|    1.081750|
|         225|  5.2892e+00|   -5.431565|   -5.654466|   -6.235330|   -5.580744|   -5.727596|   -8.181059|    1.081767|
|         226|  5.2892e+00|   -5.430823|   -5.653668|   -6.235008|   -5.579949|   -5.726849|   -8.182161|    1.081784|
|         227|  5.2894e+00|   -5.430088|   -5.652876|   -6.234689|   -5.579158|   -5.726106|   -8.183264|    1.081801|
|         228|  5.2891e+00|   -5.429358|   -5.652092|   -6.234372|   -5.578373|   -5.725367|   -8.184369|    1.081818|
|         229|  5.2889e+00|   -5.428635|   -5.651314|   -6.234059|   -5.577593|   -5.724633|   -8.185476|    1.081836|
|         230|  5.2889e+00|   -5.427918|   -5.650544|   -6.233749|   -5.576818|   -5.723903|   -8.186585|    1.081853|
|         231|  5.2885e+00|   -5.427207|   -5.649780|   -6.233441|   -5.576048|   -5.723178|   -8.187696|    1.081870|
|         232|  5.2884e+00|   -5.426502|   -5.649023|   -6.233137|   -5.575282|   -5.722457|   -8.188808|    1.081887|
|         233|  5.2879e+00|   -5.425804|   -5.648274|   -6.232835|   -5.574523|   -5.721742|   -8.189922|    1.081905|
|         234|  5.2876e+00|   -5.425112|   -5.647531|   -6.232537|   -5.573768|   -5.721030|   -8.191038|    1.081923|
|         235|  5.2871e+00|   -5.424426|   -5.646795|   -6.232242|   -5.573019|   -5.720324|   -8.192155|    1.081940|
|         236|  5.2868e+00|   -5.423747|   -5.646067|   -6.231950|   -5.572275|   -5.719622|   -8.193275|    1.081958|
|         237|  5.2865e+00|   -5.423074|   -5.645345|   -6.231661|   -5.571537|   -5.718925|   -8.194395|    1.081976|
|         238|  5.2862e+00|   -5.422408|   -5.644631|   -6.231375|   -5.570804|   -5.718234|   -8.195518|    1.081993|
|         239|  5.2860e+00|   -5.421749|   -5.643924|   -6.231093|   -5.570076|   -5.717547|   -8.196642|    1.082011|
|         240|  5.2857e+00|   -5.421095|   -5.643223|   -6.230814|   -5.569354|   -5.716865|   -8.197767|    1.082029|
|         241|  5.2859e+00|   -5.420449|   -5.642530|   -6.230538|   -5.568638|   -5.716188|   -8.198894|    1.082047|
|         242|  5.2855e+00|   -5.419808|   -5.641844|   -6.230264|   -5.567927|   -5.715516|   -8.200023|    1.082065|
|         243|  5.2851e+00|   -5.419174|   -5.641164|   -6.229993|   -5.567221|   -5.714848|   -8.201152|    1.082084|
|         244|  5.2848e+00|   -5.418546|   -5.640492|   -6.229726|   -5.566522|   -5.714186|   -8.202284|    1.082102|
|         245|  5.2845e+00|   -5.417925|   -5.639827|   -6.229461|   -5.565827|   -5.713529|   -8.203416|    1.082120|
|         246|  5.2841e+00|   -5.417310|   -5.639168|   -6.229199|   -5.565138|   -5.712876|   -8.204550|    1.082138|
|         247|  5.2836e+00|   -5.416702|   -5.638517|   -6.228940|   -5.564455|   -5.712228|   -8.205685|    1.082157|
|         248|  5.2834e+00|   -5.416100|   -5.637872|   -6.228685|   -5.563777|   -5.711586|   -8.206822|    1.082175|
|         249|  5.2831e+00|   -5.415504|   -5.637235|   -6.228432|   -5.563105|   -5.710948|   -8.207959|    1.082194|
|         250|  5.2828e+00|   -5.414915|   -5.636604|   -6.228183|   -5.562438|   -5.710315|   -8.209098|    1.082212|
|         251|  5.2825e+00|   -5.414332|   -5.635981|   -6.227937|   -5.561777|   -5.709688|   -8.210237|    1.082231|
|         252|  5.2821e+00|   -5.413756|   -5.635364|   -6.227694|   -5.561122|   -5.709065|   -8.211378|    1.082250|
|         253|  5.2818e+00|   -5.413186|   -5.634754|   -6.227454|   -5.560472|   -5.708448|   -8.212519|    1.082269|
|         254|  5.2814e+00|   -5.412622|   -5.634151|   -6.227217|   -5.559828|   -5.707835|   -8.213662|    1.082288|
|         255|  5.2812e+00|   -5.412065|   -5.633556|   -6.226984|   -5.559190|   -5.707228|   -8.214805|    1.082306|
|         256|  5.2813e+00|   -5.411514|   -5.632967|   -6.226754|   -5.558557|   -5.706626|   -8.215949|    1.082325|
|         257|  5.2812e+00|   -5.410970|   -5.632385|   -6.226527|   -5.557931|   -5.706029|   -8.217094|    1.082345|
|         258|  5.2811e+00|   -5.410433|   -5.631810|   -6.226304|   -5.557310|   -5.705438|   -8.218239|    1.082364|
|         259|  5.2811e+00|   -5.409901|   -5.631242|   -6.226083|   -5.556695|   -5.704851|   -8.219385|    1.082383|
|         260|  5.2807e+00|   -5.409376|   -5.630681|   -6.225866|   -5.556085|   -5.704270|   -8.220531|    1.082402|
|         261|  5.2804e+00|   -5.408851|   -5.630117|   -6.225648|   -5.555474|   -5.703685|   -8.221678|    1.082421|
|         262|  5.2805e+00|   -5.408332|   -5.629560|   -6.225434|   -5.554870|   -5.703106|   -8.222825|    1.082441|
|         263|  5.2806e+00|   -5.407820|   -5.629010|   -6.225224|   -5.554271|   -5.702532|   -8.223973|    1.082460|
|         264|  5.2806e+00|   -5.407314|   -5.628467|   -6.225016|   -5.553678|   -5.701963|   -8.225120|    1.082479|
|         265|  5.2805e+00|   -5.406815|   -5.627932|   -6.224812|   -5.553091|   -5.701400|   -8.226268|    1.082499|
|         266|  5.2802e+00|   -5.406323|   -5.627403|   -6.224613|   -5.552510|   -5.700843|   -8.227416|    1.082519|
|         267|  5.2799e+00|   -5.405837|   -5.626882|   -6.224417|   -5.551935|   -5.700292|   -8.228563|    1.082538|
|         268|  5.2800e+00|   -5.405359|   -5.626369|   -6.224225|   -5.551367|   -5.699747|   -8.229711|    1.082558|
|         269|  5.2801e+00|   -5.404888|   -5.625862|   -6.224037|   -5.550806|   -5.699207|   -8.230858|    1.082578|
|         270|  5.2800e+00|   -5.404423|   -5.625363|   -6.223853|   -5.550250|   -5.698673|   -8.232004|    1.082597|
|         271|  5.2799e+00|   -5.403965|   -5.624871|   -6.223673|   -5.549700|   -5.698145|   -8.233151|    1.082617|
|         272|  5.2799e+00|   -5.403513|   -5.624387|   -6.223497|   -5.549157|   -5.697622|   -8.234296|    1.082637|
|         273|  5.2798e+00|   -5.403068|   -5.623909|   -6.223324|   -5.548620|   -5.697105|   -8.235441|    1.082657|
|         274|  5.2796e+00|   -5.402630|   -5.623438|   -6.223155|   -5.548088|   -5.696594|   -8.236586|    1.082677|
|         275|  5.2795e+00|   -5.402199|   -5.622975|   -6.222989|   -5.547563|   -5.696088|   -8.237729|    1.082697|
|         276|  5.2792e+00|   -5.401773|   -5.622517|   -6.222827|   -5.547043|   -5.695586|   -8.238871|    1.082717|
|         277|  5.2788e+00|   -5.401353|   -5.622065|   -6.222669|   -5.546528|   -5.695089|   -8.240013|    1.082737|
|         278|  5.2786e+00|   -5.400940|   -5.621620|   -6.222514|   -5.546019|   -5.694598|   -8.241153|    1.082758|
|         279|  5.2784e+00|   -5.400533|   -5.621182|   -6.222363|   -5.545516|   -5.694112|   -8.242291|    1.082778|
|         280|  5.2783e+00|   -5.400133|   -5.620751|   -6.222216|   -5.545019|   -5.693631|   -8.243428|    1.082798|
|         281|  5.2781e+00|   -5.399740|   -5.620328|   -6.222074|   -5.544528|   -5.693157|   -8.244564|    1.082818|
|         282|  5.2780e+00|   -5.399353|   -5.619912|   -6.221935|   -5.544044|   -5.692688|   -8.245697|    1.082839|
|         283|  5.2777e+00|   -5.398974|   -5.619503|   -6.221801|   -5.543566|   -5.692226|   -8.246829|    1.082859|
|         284|  5.2776e+00|   -5.398601|   -5.619101|   -6.221671|   -5.543094|   -5.691769|   -8.247959|    1.082880|
|         285|  5.2777e+00|   -5.398236|   -5.618706|   -6.221545|   -5.542629|   -5.691318|   -8.249086|    1.082900|
|         286|  5.2780e+00|   -5.397877|   -5.618319|   -6.221423|   -5.542171|   -5.690873|   -8.250211|    1.082921|
|         287|  5.2780e+00|   -5.397525|   -5.617939|   -6.221306|   -5.541718|   -5.690435|   -8.251334|    1.082941|
|         288|  5.2779e+00|   -5.397180|   -5.617565|   -6.221192|   -5.541272|   -5.690002|   -8.252454|    1.082962|
|         289|  5.2776e+00|   -5.396842|   -5.617199|   -6.221083|   -5.540832|   -5.689575|   -8.253571|    1.082983|
|         290|  5.2773e+00|   -5.396510|   -5.616840|   -6.220978|   -5.540398|   -5.689153|   -8.254686|    1.083004|
|         291|  5.2771e+00|   -5.396184|   -5.616487|   -6.220879|   -5.539970|   -5.688736|   -8.255797|    1.083024|
|         292|  5.2770e+00|   -5.395866|   -5.616142|   -6.220784|   -5.539548|   -5.688325|   -8.256905|    1.083045|
|         293|  5.2768e+00|   -5.395555|   -5.615803|   -6.220693|   -5.539133|   -5.687920|   -8.258010|    1.083066|
|         294|  5.2767e+00|   -5.395250|   -5.615472|   -6.220606|   -5.538725|   -5.687522|   -8.259111|    1.083087|
|         295|  5.2763e+00|   -5.394953|   -5.615148|   -6.220524|   -5.538323|   -5.687130|   -8.260208|    1.083108|
|         296|  5.2758e+00|   -5.394663|   -5.614832|   -6.220446|   -5.537928|   -5.686744|   -8.261301|    1.083129|
|         297|  5.2755e+00|   -5.394380|   -5.614523|   -6.220372|   -5.537540|   -5.686364|   -8.262390|    1.083150|
|         298|  5.2753e+00|   -5.394103|   -5.614220|   -6.220302|   -5.537158|   -5.685990|   -8.263475|    1.083171|
|         299|  5.2753e+00|   -5.393834|   -5.613925|   -6.220236|   -5.536782|   -5.685622|   -8.264555|    1.083192|
|         300|  5.2754e+00|   -5.393571|   -5.613637|   -6.220175|   -5.536413|   -5.685260|   -8.265630|    1.083214|
+-----------------------------------------------------------------------+
|        File Writing Summary       |              Filename             |
+-----------------------------------------------------------------------+
|SU2 binary restart                 |restart_flow.dat                   |
|Paraview                           |flow.vtu                           |
|Paraview surface                   |surface_flow.vtu                   |
+-----------------------------------------------------------------------+
+--------------------------------------------------------------------------------------------------------------------+
|  Inner_Iter|   Time(sec)|    rms[Rho]|   rms[RhoU]|   rms[RhoV]|   rms[RhoW]|   rms[RhoE]|     rms[nu]|          CD|
+--------------------------------------------------------------------------------------------------------------------+
|         301|  5.3453e+00|   -5.393316|   -5.613356|   -6.220118|   -5.536052|   -5.684905|   -8.266701|    1.083235|
|         302|  5.3458e+00|   -5.393068|   -5.613082|   -6.220065|   -5.535696|   -5.684555|   -8.267766|    1.083256|
|         303|  5.3460e+00|   -5.392826|   -5.612816|   -6.220016|   -5.535347|   -5.684212|   -8.268826|    1.083277|
|         304|  5.3462e+00|   -5.392592|   -5.612557|   -6.219971|   -5.535004|   -5.683874|   -8.269881|    1.083299|
|         305|  5.3459e+00|   -5.392365|   -5.612305|   -6.219930|   -5.534669|   -5.683543|   -8.270929|    1.083320|
|         306|  5.3460e+00|   -5.392144|   -5.612060|   -6.219894|   -5.534340|   -5.683218|   -8.271972|    1.083341|
|         307|  5.3457e+00|   -5.391931|   -5.611822|   -6.219861|   -5.534017|   -5.682898|   -8.273009|    1.083363|
|         308|  5.3454e+00|   -5.391724|   -5.611591|   -6.219833|   -5.533701|   -5.682585|   -8.274039|    1.083384|
|         309|  5.3453e+00|   -5.391525|   -5.611368|   -6.219809|   -5.533392|   -5.682279|   -8.275062|    1.083406|
|         310|  5.3450e+00|   -5.391333|   -5.611152|   -6.219789|   -5.533089|   -5.681978|   -8.276079|    1.083427|
|         311|  5.3447e+00|   -5.391147|   -5.610942|   -6.219774|   -5.532793|   -5.681683|   -8.277089|    1.083449|
|         312|  5.3446e+00|   -5.390969|   -5.610740|   -6.219761|   -5.532503|   -5.681394|   -8.278091|    1.083471|
|         313|  5.3443e+00|   -5.390797|   -5.610544|   -6.219752|   -5.532220|   -5.681111|   -8.279086|    1.083492|
|         314|  5.3438e+00|   -5.390632|   -5.610355|   -6.219748|   -5.531943|   -5.680833|   -8.280073|    1.083514|
|         315|  5.3434e+00|   -5.390474|   -5.610174|   -6.219748|   -5.531673|   -5.680563|   -8.281052|    1.083536|
|         316|  5.3431e+00|   -5.390323|   -5.610000|   -6.219753|   -5.531410|   -5.680298|   -8.282022|    1.083557|
|         317|  5.3429e+00|   -5.390179|   -5.609833|   -6.219762|   -5.531153|   -5.680039|   -8.282985|    1.083579|
|         318|  5.3427e+00|   -5.390042|   -5.609673|   -6.219775|   -5.530903|   -5.679786|   -8.283938|    1.083601|
|         319|  5.3423e+00|   -5.389913|   -5.609520|   -6.219791|   -5.530659|   -5.679540|   -8.284883|    1.083623|
|         320|  5.3420e+00|   -5.389790|   -5.609374|   -6.219812|   -5.530422|   -5.679299|   -8.285818|    1.083645|
|         321|  5.3416e+00|   -5.389673|   -5.609235|   -6.219836|   -5.530191|   -5.679064|   -8.286744|    1.083666|
|         322|  5.3414e+00|   -5.389564|   -5.609103|   -6.219864|   -5.529966|   -5.678835|   -8.287660|    1.083688|
|         323|  5.3412e+00|   -5.389461|   -5.608978|   -6.219896|   -5.529748|   -5.678611|   -8.288567|    1.083710|
|         324|  5.3411e+00|   -5.389364|   -5.608859|   -6.219931|   -5.529535|   -5.678393|   -8.289463|    1.083732|
|         325|  5.3407e+00|   -5.389274|   -5.608747|   -6.219971|   -5.529328|   -5.678180|   -8.290349|    1.083754|
|         326|  5.3404e+00|   -5.389191|   -5.608641|   -6.220014|   -5.529129|   -5.677973|   -8.291224|    1.083776|
|         327|  5.3401e+00|   -5.389116|   -5.608543|   -6.220062|   -5.528936|   -5.677773|   -8.292088|    1.083798|
|         328|  5.3399e+00|   -5.389047|   -5.608452|   -6.220115|   -5.528749|   -5.677579|   -8.292941|    1.083820|
|         329|  5.3394e+00|   -5.388985|   -5.608368|   -6.220171|   -5.528569|   -5.677390|   -8.293783|    1.083842|
|         330|  5.3392e+00|   -5.388930|   -5.608290|   -6.220231|   -5.528396|   -5.677208|   -8.294613|    1.083864|
|         331|  5.3388e+00|   -5.388882|   -5.608219|   -6.220295|   -5.528229|   -5.677031|   -8.295431|    1.083886|
|         332|  5.3385e+00|   -5.388841|   -5.608156|   -6.220364|   -5.528069|   -5.676861|   -8.296237|    1.083909|
|         333|  5.3383e+00|   -5.388807|   -5.608099|   -6.220436|   -5.527916|   -5.676696|   -8.297030|    1.083931|
|         334|  5.3381e+00|   -5.388779|   -5.608049|   -6.220514|   -5.527769|   -5.676538|   -8.297811|    1.083953|
|         335|  5.3376e+00|   -5.388759|   -5.608006|   -6.220596|   -5.527629|   -5.676386|   -8.298579|    1.083975|
|         336|  5.3371e+00|   -5.388746|   -5.607970|   -6.220682|   -5.527495|   -5.676239|   -8.299333|    1.083997|
|         337|  5.3370e+00|   -5.388739|   -5.607941|   -6.220773|   -5.527367|   -5.676099|   -8.300075|    1.084019|
|         338|  5.3369e+00|   -5.388740|   -5.607919|   -6.220868|   -5.527246|   -5.675964|   -8.300802|    1.084042|
|         339|  5.3367e+00|   -5.388747|   -5.607904|   -6.220967|   -5.527132|   -5.675836|   -8.301516|    1.084064|
|         340|  5.3363e+00|   -5.388762|   -5.607896|   -6.221071|   -5.527024|   -5.675713|   -8.302216|    1.084086|
|         341|  5.3360e+00|   -5.388783|   -5.607894|   -6.221179|   -5.526923|   -5.675597|   -8.302901|    1.084109|
|         342|  5.3356e+00|   -5.388811|   -5.607900|   -6.221292|   -5.526828|   -5.675487|   -8.303572|    1.084131|
|         343|  5.3354e+00|   -5.388846|   -5.607912|   -6.221409|   -5.526740|   -5.675382|   -8.304228|    1.084153|
|         344|  5.3355e+00|   -5.388888|   -5.607932|   -6.221531|   -5.526658|   -5.675283|   -8.304868|    1.084176|
|         345|  5.3353e+00|   -5.388937|   -5.607958|   -6.221657|   -5.526582|   -5.675190|   -8.305494|    1.084198|
|         346|  5.3352e+00|   -5.388992|   -5.607991|   -6.221787|   -5.526513|   -5.675103|   -8.306104|    1.084220|
|         347|  5.3350e+00|   -5.389055|   -5.608031|   -6.221922|   -5.526450|   -5.675022|   -8.306698|    1.084243|
|         348|  5.3346e+00|   -5.389123|   -5.608077|   -6.222060|   -5.526393|   -5.674947|   -8.307276|    1.084265|
|         349|  5.3343e+00|   -5.389199|   -5.608131|   -6.222202|   -5.526343|   -5.674877|   -8.307838|    1.084287|
|         350|  5.3339e+00|   -5.389282|   -5.608191|   -6.222349|   -5.526299|   -5.674813|   -8.308384|    1.084310|
|         351|  5.3338e+00|   -5.389372|   -5.608259|   -6.222501|   -5.526262|   -5.674756|   -8.308913|    1.084332|
|         352|  5.3336e+00|   -5.389468|   -5.608333|   -6.222657|   -5.526231|   -5.674704|   -8.309425|    1.084355|
|         353|  5.3335e+00|   -5.389572|   -5.608415|   -6.222817|   -5.526207|   -5.674658|   -8.309920|    1.084377|
|         354|  5.3333e+00|   -5.389683|   -5.608503|   -6.222983|   -5.526190|   -5.674619|   -8.310399|    1.084400|
|         355|  5.3329e+00|   -5.389800|   -5.608599|   -6.223153|   -5.526179|   -5.674585|   -8.310859|    1.084422|
|         356|  5.3326e+00|   -5.389925|   -5.608702|   -6.223328|   -5.526174|   -5.674558|   -8.311303|    1.084445|
|         357|  5.3322e+00|   -5.390057|   -5.608811|   -6.223508|   -5.526176|   -5.674537|   -8.311728|    1.084467|
|         358|  5.3318e+00|   -5.390195|   -5.608928|   -6.223691|   -5.526185|   -5.674521|   -8.312136|    1.084490|
|         359|  5.3316e+00|   -5.390341|   -5.609052|   -6.223880|   -5.526200|   -5.674512|   -8.312525|    1.084512|
|         360|  5.3315e+00|   -5.390494|   -5.609183|   -6.224073|   -5.526222|   -5.674509|   -8.312897|    1.084535|
|         361|  5.3310e+00|   -5.390654|   -5.609321|   -6.224270|   -5.526251|   -5.674512|   -8.313250|    1.084557|
|         362|  5.3308e+00|   -5.390821|   -5.609466|   -6.224472|   -5.526286|   -5.674522|   -8.313584|    1.084580|
|         363|  5.3306e+00|   -5.390995|   -5.609618|   -6.224679|   -5.526327|   -5.674537|   -8.313900|    1.084602|
|         364|  5.3304e+00|   -5.391176|   -5.609778|   -6.224890|   -5.526376|   -5.674558|   -8.314197|    1.084625|
|         365|  5.3300e+00|   -5.391364|   -5.609944|   -6.225105|   -5.526431|   -5.674586|   -8.314475|    1.084647|
|         366|  5.3297e+00|   -5.391560|   -5.610118|   -6.225325|   -5.526492|   -5.674620|   -8.314735|    1.084670|
|         367|  5.3297e+00|   -5.391762|   -5.610299|   -6.225550|   -5.526561|   -5.674660|   -8.314975|    1.084693|
|         368|  5.3295e+00|   -5.391972|   -5.610487|   -6.225779|   -5.526636|   -5.674706|   -8.315195|    1.084715|
|         369|  5.3292e+00|   -5.392189|   -5.610682|   -6.226012|   -5.526718|   -5.674758|   -8.315397|    1.084738|
|         370|  5.3288e+00|   -5.392413|   -5.610884|   -6.226250|   -5.526807|   -5.674817|   -8.315579|    1.084760|
|         371|  5.3285e+00|   -5.392644|   -5.611094|   -6.226492|   -5.526902|   -5.674882|   -8.315742|    1.084783|
|         372|  5.3282e+00|   -5.392883|   -5.611311|   -6.226739|   -5.527005|   -5.674953|   -8.315885|    1.084806|
|         373|  5.3279e+00|   -5.393129|   -5.611535|   -6.226991|   -5.527114|   -5.675031|   -8.316008|    1.084828|
|         374|  5.3278e+00|   -5.393382|   -5.611766|   -6.227247|   -5.527230|   -5.675115|   -8.316112|    1.084851|
|         375|  5.3276e+00|   -5.393642|   -5.612005|   -6.227508|   -5.527353|   -5.675206|   -8.316197|    1.084873|
|         376|  5.3273e+00|   -5.393910|   -5.612251|   -6.227773|   -5.527482|   -5.675303|   -8.316261|    1.084896|
|         377|  5.3269e+00|   -5.394185|   -5.612505|   -6.228042|   -5.527619|   -5.675405|   -8.316306|    1.084919|
|         378|  5.3265e+00|   -5.394468|   -5.612765|   -6.228316|   -5.527762|   -5.675515|   -8.316332|    1.084941|
|         379|  5.3262e+00|   -5.394757|   -5.613034|   -6.228594|   -5.527912|   -5.675630|   -8.316337|    1.084964|
|         380|  5.3259e+00|   -5.395054|   -5.613309|   -6.228876|   -5.528069|   -5.675752|   -8.316323|    1.084987|
|         381|  5.3257e+00|   -5.395358|   -5.613592|   -6.229163|   -5.528232|   -5.675880|   -8.316290|    1.085009|
|         382|  5.3255e+00|   -5.395670|   -5.613883|   -6.229455|   -5.528403|   -5.676015|   -8.316236|    1.085032|
|         383|  5.3254e+00|   -5.395989|   -5.614181|   -6.229751|   -5.528581|   -5.676156|   -8.316163|    1.085055|
|         384|  5.3252e+00|   -5.396316|   -5.614487|   -6.230052|   -5.528766|   -5.676305|   -8.316070|    1.085077|
|         385|  5.3249e+00|   -5.396651|   -5.614800|   -6.230357|   -5.528957|   -5.676459|   -8.315958|    1.085100|
|         386|  5.3246e+00|   -5.396992|   -5.615121|   -6.230667|   -5.529156|   -5.676620|   -8.315826|    1.085122|
|         387|  5.3245e+00|   -5.397341|   -5.615449|   -6.230980|   -5.529362|   -5.676787|   -8.315674|    1.085145|
|         388|  5.3242e+00|   -5.397698|   -5.615785|   -6.231298|   -5.529574|   -5.676961|   -8.315504|    1.085168|
|         389|  5.3240e+00|   -5.398062|   -5.616129|   -6.231620|   -5.529794|   -5.677142|   -8.315313|    1.085190|
|         390|  5.3237e+00|   -5.398434|   -5.616480|   -6.231946|   -5.530020|   -5.677328|   -8.315104|    1.085213|
|         391|  5.3235e+00|   -5.398813|   -5.616839|   -6.232276|   -5.530254|   -5.677522|   -8.314875|    1.085236|
|         392|  5.3232e+00|   -5.399199|   -5.617205|   -6.232611|   -5.530494|   -5.677721|   -8.314627|    1.085258|
|         393|  5.3231e+00|   -5.399593|   -5.617579|   -6.232950|   -5.530742|   -5.677927|   -8.314361|    1.085281|
|         394|  5.3231e+00|   -5.399995|   -5.617960|   -6.233293|   -5.530996|   -5.678140|   -8.314075|    1.085304|
|         395|  5.3229e+00|   -5.400404|   -5.618349|   -6.233641|   -5.531258|   -5.678359|   -8.313771|    1.085326|
|         396|  5.3227e+00|   -5.400820|   -5.618746|   -6.233993|   -5.531526|   -5.678585|   -8.313448|    1.085349|
|         397|  5.3225e+00|   -5.401245|   -5.619150|   -6.234349|   -5.531802|   -5.678817|   -8.313106|    1.085371|
|         398|  5.3224e+00|   -5.401676|   -5.619562|   -6.234711|   -5.532084|   -5.679056|   -8.312747|    1.085394|
|         399|  5.3221e+00|   -5.402116|   -5.619982|   -6.235076|   -5.532373|   -5.679301|   -8.312369|    1.085417|
|         400|  5.3218e+00|   -5.402562|   -5.620409|   -6.235446|   -5.532670|   -5.679553|   -8.311973|    1.085439|
|         401|  5.3218e+00|   -5.403017|   -5.620844|   -6.235819|   -5.532973|   -5.679811|   -8.311559|    1.085462|
|         402|  5.3215e+00|   -5.403478|   -5.621286|   -6.236198|   -5.533283|   -5.680075|   -8.311128|    1.085484|
|         403|  5.3212e+00|   -5.403948|   -5.621736|   -6.236581|   -5.533600|   -5.680347|   -8.310679|    1.085507|
|         404|  5.3207e+00|   -5.404425|   -5.622194|   -6.236968|   -5.533925|   -5.680624|   -8.310213|    1.085530|
|         405|  5.3203e+00|   -5.404909|   -5.622659|   -6.237360|   -5.534256|   -5.680908|   -8.309729|    1.085552|
|         406|  5.3200e+00|   -5.405401|   -5.623132|   -6.237755|   -5.534594|   -5.681198|   -8.309229|    1.085575|
|         407|  5.3197e+00|   -5.405901|   -5.623613|   -6.238155|   -5.534938|   -5.681495|   -8.308712|    1.085597|
|         408|  5.3195e+00|   -5.406408|   -5.624101|   -6.238559|   -5.535290|   -5.681798|   -8.308179|    1.085620|
|         409|  5.3191e+00|   -5.406922|   -5.624597|   -6.238966|   -5.535649|   -5.682108|   -8.307629|    1.085642|
|         410|  5.3187e+00|   -5.407445|   -5.625100|   -6.239378|   -5.536015|   -5.682424|   -8.307063|    1.085665|
|         411|  5.3185e+00|   -5.407975|   -5.625611|   -6.239794|   -5.536387|   -5.682746|   -8.306481|    1.085687|
|         412|  5.3181e+00|   -5.408512|   -5.626130|   -6.240213|   -5.536767|   -5.683075|   -8.305884|    1.085710|
|         413|  5.3179e+00|   -5.409057|   -5.626656|   -6.240637|   -5.537154|   -5.683410|   -8.305272|    1.085732|
|         414|  5.3177e+00|   -5.409610|   -5.627190|   -6.241064|   -5.537547|   -5.683752|   -8.304644|    1.085755|
|         415|  5.3175e+00|   -5.410170|   -5.627731|   -6.241497|   -5.537948|   -5.684099|   -8.304001|    1.085777|
|         416|  5.3174e+00|   -5.410737|   -5.628280|   -6.241933|   -5.538355|   -5.684453|   -8.303344|    1.085800|
|         417|  5.3171e+00|   -5.411312|   -5.628836|   -6.242374|   -5.538770|   -5.684814|   -8.302672|    1.085822|
|         418|  5.3170e+00|   -5.411895|   -5.629400|   -6.242819|   -5.539191|   -5.685181|   -8.301986|    1.085844|
|         419|  5.3169e+00|   -5.412485|   -5.629972|   -6.243267|   -5.539620|   -5.685554|   -8.301286|    1.085867|
|         420|  5.3167e+00|   -5.413083|   -5.630551|   -6.243719|   -5.540055|   -5.685934|   -8.300572|    1.085889|
|         421|  5.3166e+00|   -5.413689|   -5.631138|   -6.244174|   -5.540497|   -5.686320|   -8.299846|    1.085912|
|         422|  5.3164e+00|   -5.414302|   -5.631732|   -6.244633|   -5.540946|   -5.686712|   -8.299106|    1.085934|
|         423|  5.3163e+00|   -5.414922|   -5.632334|   -6.245095|   -5.541402|   -5.687110|   -8.298353|    1.085956|
|         424|  5.3161e+00|   -5.415550|   -5.632943|   -6.245561|   -5.541864|   -5.687515|   -8.297587|    1.085979|
|         425|  5.3161e+00|   -5.416186|   -5.633560|   -6.246031|   -5.542334|   -5.687926|   -8.296809|    1.086001|
|         426|  5.3160e+00|   -5.416829|   -5.634185|   -6.246504|   -5.542810|   -5.688343|   -8.296019|    1.086023|
|         427|  5.3160e+00|   -5.417479|   -5.634817|   -6.246980|   -5.543294|   -5.688766|   -8.295217|    1.086045|
|         428|  5.3157e+00|   -5.418138|   -5.635457|   -6.247460|   -5.543784|   -5.689196|   -8.294403|    1.086068|
|         429|  5.3154e+00|   -5.418803|   -5.636104|   -6.247943|   -5.544281|   -5.689632|   -8.293578|    1.086090|
|         430|  5.3154e+00|   -5.419477|   -5.636760|   -6.248429|   -5.544785|   -5.690074|   -8.292743|    1.086112|
|         431|  5.3154e+00|   -5.420158|   -5.637422|   -6.248920|   -5.545296|   -5.690523|   -8.291896|    1.086134|
|         432|  5.3152e+00|   -5.420847|   -5.638093|   -6.249414|   -5.545814|   -5.690978|   -8.291039|    1.086156|
|         433|  5.3150e+00|   -5.421544|   -5.638771|   -6.249912|   -5.546339|   -5.691439|   -8.290172|    1.086178|
|         434|  5.3149e+00|   -5.422248|   -5.639457|   -6.250414|   -5.546871|   -5.691907|   -8.289296|    1.086200|
|         435|  5.3148e+00|   -5.422960|   -5.640150|   -6.250920|   -5.547409|   -5.692381|   -8.288409|    1.086222|
|         436|  5.3146e+00|   -5.423679|   -5.640851|   -6.251429|   -5.547954|   -5.692861|   -8.287513|    1.086244|
|         437|  5.3144e+00|   -5.424406|   -5.641560|   -6.251942|   -5.548507|   -5.693348|   -8.286608|    1.086266|
|         438|  5.3142e+00|   -5.425141|   -5.642277|   -6.252458|   -5.549066|   -5.693841|   -8.285695|    1.086288|
|         439|  5.3142e+00|   -5.425884|   -5.643001|   -6.252977|   -5.549633|   -5.694340|   -8.284772|    1.086310|
|         440|  5.3139e+00|   -5.426634|   -5.643734|   -6.253500|   -5.550206|   -5.694846|   -8.283842|    1.086332|
|         441|  5.3140e+00|   -5.427392|   -5.644474|   -6.254025|   -5.550786|   -5.695358|   -8.282903|    1.086354|
|         442|  5.3138e+00|   -5.428158|   -5.645221|   -6.254553|   -5.551373|   -5.695876|   -8.281957|    1.086376|
|         443|  5.3136e+00|   -5.428931|   -5.645977|   -6.255084|   -5.551967|   -5.696401|   -8.281003|    1.086398|
|         444|  5.3134e+00|   -5.429712|   -5.646740|   -6.255619|   -5.552568|   -5.696932|   -8.280041|    1.086419|
|         445|  5.3131e+00|   -5.430501|   -5.647511|   -6.256157|   -5.553175|   -5.697469|   -8.279073|    1.086441|
|         446|  5.3132e+00|   -5.431297|   -5.648290|   -6.256699|   -5.553790|   -5.698013|   -8.278098|    1.086463|
|         447|  5.3131e+00|   -5.432101|   -5.649077|   -6.257245|   -5.554412|   -5.698562|   -8.277117|    1.086484|
|         448|  5.3130e+00|   -5.432914|   -5.649872|   -6.257793|   -5.555040|   -5.699119|   -8.276129|    1.086506|
|         449|  5.3129e+00|   -5.433733|   -5.650674|   -6.258344|   -5.555676|   -5.699682|   -8.275135|    1.086528|
|         450|  5.3127e+00|   -5.434560|   -5.651484|   -6.258897|   -5.556318|   -5.700251|   -8.274135|    1.086549|
+-----------------------------------------------------------------------+
|        File Writing Summary       |              Filename             |
+-----------------------------------------------------------------------+
|SU2 binary restart                 |restart_flow.dat                   |
|Paraview                           |flow.vtu                           |
|Paraview surface                   |surface_flow.vtu                   |
+-----------------------------------------------------------------------+
+--------------------------------------------------------------------------------------------------------------------+
|  Inner_Iter|   Time(sec)|    rms[Rho]|   rms[RhoU]|   rms[RhoV]|   rms[RhoW]|   rms[RhoE]|     rms[nu]|          CD|
+--------------------------------------------------------------------------------------------------------------------+
|         451|  5.3642e+00|   -5.435396|   -5.652302|   -6.259453|   -5.556968|   -5.700826|   -8.273130|    1.086571|
|         452|  5.3669e+00|   -5.436238|   -5.653128|   -6.260012|   -5.557625|   -5.701408|   -8.272120|    1.086592|
|         453|  5.3677e+00|   -5.437089|   -5.653962|   -6.260574|   -5.558288|   -5.701996|   -8.271104|    1.086614|
|         454|  5.3677e+00|   -5.437948|   -5.654804|   -6.261139|   -5.558959|   -5.702591|   -8.270084|    1.086635|
|         455|  5.3677e+00|   -5.438814|   -5.655654|   -6.261707|   -5.559637|   -5.703192|   -8.269059|    1.086656|
|         456|  5.3676e+00|   -5.439688|   -5.656511|   -6.262278|   -5.560322|   -5.703800|   -8.268030|    1.086678|
|         457|  5.3676e+00|   -5.440570|   -5.657377|   -6.262851|   -5.561013|   -5.704413|   -8.266996|    1.086699|
|         458|  5.3674e+00|   -5.441460|   -5.658251|   -6.263427|   -5.561712|   -5.705034|   -8.265959|    1.086720|
|         459|  5.3673e+00|   -5.442358|   -5.659132|   -6.264006|   -5.562419|   -5.705661|   -8.264918|    1.086741|
|         460|  5.3672e+00|   -5.443263|   -5.660022|   -6.264587|   -5.563132|   -5.706294|   -8.263873|    1.086762|
|         461|  5.3670e+00|   -5.444177|   -5.660920|   -6.265171|   -5.563852|   -5.706934|   -8.262825|    1.086784|
|         462|  5.3668e+00|   -5.445098|   -5.661825|   -6.265758|   -5.564579|   -5.707580|   -8.261774|    1.086805|
|         463|  5.3666e+00|   -5.446027|   -5.662739|   -6.266347|   -5.565313|   -5.708233|   -8.260720|    1.086826|
|         464|  5.3662e+00|   -5.446964|   -5.663661|   -6.266938|   -5.566054|   -5.708892|   -8.259663|    1.086847|
|         465|  5.3660e+00|   -5.447909|   -5.664590|   -6.267531|   -5.566802|   -5.709557|   -8.258604|    1.086867|
|         466|  5.3657e+00|   -5.448861|   -5.665528|   -6.268127|   -5.567558|   -5.710229|   -8.257543|    1.086888|
|         467|  5.3654e+00|   -5.449822|   -5.666474|   -6.268726|   -5.568320|   -5.710907|   -8.256479|    1.086909|
|         468|  5.3650e+00|   -5.450790|   -5.667427|   -6.269327|   -5.569089|   -5.711591|   -8.255414|    1.086930|
|         469|  5.3647e+00|   -5.451766|   -5.668389|   -6.269929|   -5.569865|   -5.712282|   -8.254347|    1.086951|
|         470|  5.3645e+00|   -5.452749|   -5.669359|   -6.270534|   -5.570648|   -5.712979|   -8.253278|    1.086971|
|         471|  5.3643e+00|   -5.453741|   -5.670336|   -6.271142|   -5.571438|   -5.713683|   -8.252208|    1.086992|
|         472|  5.3640e+00|   -5.454740|   -5.671322|   -6.271752|   -5.572236|   -5.714393|   -8.251137|    1.087012|
|         473|  5.3636e+00|   -5.455747|   -5.672316|   -6.272364|   -5.573040|   -5.715110|   -8.250064|    1.087033|
|         474|  5.3634e+00|   -5.456763|   -5.673318|   -6.272979|   -5.573852|   -5.715833|   -8.248991|    1.087053|
|         475|  5.3633e+00|   -5.457786|   -5.674329|   -6.273596|   -5.574670|   -5.716562|   -8.247917|    1.087074|
|         476|  5.3631e+00|   -5.458817|   -5.675347|   -6.274215|   -5.575496|   -5.717299|   -8.246843|    1.087094|
|         477|  5.3628e+00|   -5.459856|   -5.676374|   -6.274836|   -5.576329|   -5.718041|   -8.245768|    1.087114|
|         478|  5.3626e+00|   -5.460903|   -5.677408|   -6.275459|   -5.577169|   -5.718790|   -8.244693|    1.087134|
|         479|  5.3624e+00|   -5.461957|   -5.678451|   -6.276085|   -5.578016|   -5.719546|   -8.243618|    1.087155|
|         480|  5.3622e+00|   -5.463020|   -5.679502|   -6.276712|   -5.578870|   -5.720308|   -8.242542|    1.087175|
|         481|  5.3623e+00|   -5.464090|   -5.680561|   -6.277342|   -5.579731|   -5.721076|   -8.241467|    1.087195|
|         482|  5.3621e+00|   -5.465169|   -5.681628|   -6.277974|   -5.580600|   -5.721851|   -8.240393|    1.087215|
|         483|  5.3619e+00|   -5.466255|   -5.682703|   -6.278607|   -5.581475|   -5.722632|   -8.239319|    1.087235|
|         484|  5.3615e+00|   -5.467349|   -5.683786|   -6.279243|   -5.582357|   -5.723420|   -8.238245|    1.087255|
|         485|  5.3614e+00|   -5.468450|   -5.684877|   -6.279879|   -5.583246|   -5.724213|   -8.237172|    1.087275|
|         486|  5.3611e+00|   -5.469559|   -5.685976|   -6.280518|   -5.584143|   -5.725014|   -8.236100|    1.087294|
|         487|  5.3608e+00|   -5.470676|   -5.687083|   -6.281158|   -5.585046|   -5.725820|   -8.235029|    1.087314|
|         488|  5.3605e+00|   -5.471801|   -5.688198|   -6.281799|   -5.585956|   -5.726633|   -8.233959|    1.087334|
|         489|  5.3603e+00|   -5.472934|   -5.689322|   -6.282441|   -5.586874|   -5.727453|   -8.232891|    1.087353|
|         490|  5.3599e+00|   -5.474074|   -5.690453|   -6.283085|   -5.587798|   -5.728278|   -8.231823|    1.087373|
|         491|  5.3597e+00|   -5.475222|   -5.691592|   -6.283731|   -5.588730|   -5.729110|   -8.230757|    1.087392|
|         492|  5.3595e+00|   -5.476377|   -5.692739|   -6.284377|   -5.589668|   -5.729948|   -8.229693|    1.087412|
|         493|  5.3595e+00|   -5.477540|   -5.693893|   -6.285026|   -5.590614|   -5.730793|   -8.228630|    1.087431|
|         494|  5.3592e+00|   -5.478711|   -5.695056|   -6.285675|   -5.591566|   -5.731643|   -8.227570|    1.087451|
|         495|  5.3589e+00|   -5.479889|   -5.696226|   -6.286326|   -5.592525|   -5.732500|   -8.226510|    1.087470|
|         496|  5.3586e+00|   -5.481074|   -5.697405|   -6.286979|   -5.593490|   -5.733363|   -8.225453|    1.087489|
|         497|  5.3582e+00|   -5.482267|   -5.698591|   -6.287633|   -5.594463|   -5.734232|   -8.224398|    1.087508|
|         498|  5.3580e+00|   -5.483468|   -5.699785|   -6.288288|   -5.595442|   -5.735107|   -8.223346|    1.087527|
|         499|  5.3576e+00|   -5.484675|   -5.700986|   -6.288945|   -5.596428|   -5.735988|   -8.222295|    1.087546|
|         500|  5.3574e+00|   -5.485890|   -5.702196|   -6.289602|   -5.597420|   -5.736875|   -8.221247|    1.087565|
|         501|  5.3574e+00|   -5.487112|   -5.703413|   -6.290260|   -5.598419|   -5.737768|   -8.220201|    1.087584|
|         502|  5.3572e+00|   -5.488342|   -5.704637|   -6.290918|   -5.599424|   -5.738667|   -8.219157|    1.087603|
|         503|  5.3569e+00|   -5.489578|   -5.705869|   -6.291577|   -5.600436|   -5.739571|   -8.218117|    1.087622|
|         504|  5.3565e+00|   -5.490821|   -5.707109|   -6.292237|   -5.601454|   -5.740482|   -8.217078|    1.087640|
|         505|  5.3563e+00|   -5.492071|   -5.708355|   -6.292899|   -5.602478|   -5.741397|   -8.216043|    1.087659|
|         506|  5.3561e+00|   -5.493328|   -5.709609|   -6.293565|   -5.603509|   -5.742319|   -8.215010|    1.087677|
|         507|  5.3558e+00|   -5.494592|   -5.710869|   -6.294231|   -5.604546|   -5.743246|   -8.213979|    1.087696|
|         508|  5.3556e+00|   -5.495862|   -5.712138|   -6.294897|   -5.605589|   -5.744178|   -8.212952|    1.087714|
|         509|  5.3555e+00|   -5.497140|   -5.713413|   -6.295564|   -5.606638|   -5.745116|   -8.211927|    1.087733|
|         510|  5.3553e+00|   -5.498424|   -5.714696|   -6.296231|   -5.607694|   -5.746060|   -8.210905|    1.087751|
|         511|  5.3549e+00|   -5.499715|   -5.715986|   -6.296900|   -5.608757|   -5.747010|   -8.209886|    1.087769|
|         512|  5.3546e+00|   -5.501013|   -5.717283|   -6.297568|   -5.609826|   -5.747966|   -8.208870|    1.087787|
|         513|  5.3544e+00|   -5.502316|   -5.718586|   -6.298237|   -5.610899|   -5.748925|   -8.207857|    1.087806|
|         514|  5.3542e+00|   -5.503625|   -5.719895|   -6.298906|   -5.611978|   -5.749890|   -8.206847|    1.087824|
|         515|  5.3538e+00|   -5.504941|   -5.721212|   -6.299576|   -5.613063|   -5.750860|   -8.205840|    1.087842|
|         516|  5.3534e+00|   -5.506263|   -5.722535|   -6.300246|   -5.614154|   -5.751836|   -8.204836|    1.087860|
|         517|  5.3531e+00|   -5.507591|   -5.723866|   -6.300917|   -5.615251|   -5.752817|   -8.203836|    1.087877|
|         518|  5.3529e+00|   -5.508926|   -5.725202|   -6.301587|   -5.616354|   -5.753803|   -8.202838|    1.087895|
|         519|  5.3527e+00|   -5.510267|   -5.726546|   -6.302258|   -5.617464|   -5.754795|   -8.201844|    1.087913|
|         520|  5.3524e+00|   -5.511615|   -5.727896|   -6.302928|   -5.618579|   -5.755792|   -8.200853|    1.087931|
|         521|  5.3520e+00|   -5.512968|   -5.729252|   -6.303598|   -5.619700|   -5.756794|   -8.199865|    1.087948|
|         522|  5.3516e+00|   -5.514328|   -5.730616|   -6.304269|   -5.620827|   -5.757801|   -8.198881|    1.087966|
|         523|  5.3514e+00|   -5.515693|   -5.731985|   -6.304939|   -5.621959|   -5.758814|   -8.197900|    1.087983|
|         524|  5.3511e+00|   -5.517065|   -5.733361|   -6.305609|   -5.623097|   -5.759831|   -8.196923|    1.088000|
|         525|  5.3510e+00|   -5.518442|   -5.734743|   -6.306278|   -5.624241|   -5.760853|   -8.195949|    1.088018|
|         526|  5.3509e+00|   -5.519825|   -5.736131|   -6.306947|   -5.625391|   -5.761880|   -8.194978|    1.088035|
|         527|  5.3506e+00|   -5.521213|   -5.737525|   -6.307616|   -5.626546|   -5.762912|   -8.194011|    1.088052|
|         528|  5.3504e+00|   -5.522608|   -5.738927|   -6.308285|   -5.627707|   -5.763950|   -8.193047|    1.088069|
|         529|  5.3501e+00|   -5.524008|   -5.740334|   -6.308953|   -5.628873|   -5.764992|   -8.192087|    1.088086|
|         530|  5.3498e+00|   -5.525413|   -5.741746|   -6.309621|   -5.630044|   -5.766039|   -8.191131|    1.088103|
|         531|  5.3495e+00|   -5.526824|   -5.743165|   -6.310288|   -5.631221|   -5.767091|   -8.190178|    1.088120|
|         532|  5.3492e+00|   -5.528239|   -5.744589|   -6.310954|   -5.632403|   -5.768146|   -8.189229|    1.088137|
|         533|  5.3490e+00|   -5.529660|   -5.746018|   -6.311619|   -5.633590|   -5.769207|   -8.188283|    1.088154|
|         534|  5.3486e+00|   -5.531085|   -5.747453|   -6.312284|   -5.634782|   -5.770272|   -8.187341|    1.088170|
|         535|  5.3484e+00|   -5.532516|   -5.748894|   -6.312947|   -5.635979|   -5.771341|   -8.186402|    1.088187|
|         536|  5.3482e+00|   -5.533951|   -5.750339|   -6.313610|   -5.637181|   -5.772414|   -8.185468|    1.088204|
|         537|  5.3480e+00|   -5.535388|   -5.751787|   -6.314273|   -5.638385|   -5.773490|   -8.184537|    1.088220|
|         538|  5.3478e+00|   -5.536829|   -5.753240|   -6.314934|   -5.639594|   -5.774569|   -8.183609|    1.088236|
[...]
|        6830|  5.3605e+00|   -5.713160|   -5.922353|   -6.438804|   -5.857581|   -5.992990|   -8.303602|    1.085839|
|        6831|  5.3604e+00|   -5.713113|   -5.922184|   -6.438949|   -5.857418|   -5.992797|   -8.303316|    1.085833|
|        6832|  5.3604e+00|   -5.713071|   -5.922021|   -6.439096|   -5.857260|   -5.992609|   -8.303033|    1.085827|
|        6833|  5.3604e+00|   -5.713035|   -5.921864|   -6.439245|   -5.857108|   -5.992426|   -8.302755|    1.085821|
|        6834|  5.3604e+00|   -5.713005|   -5.921713|   -6.439396|   -5.856962|   -5.992248|   -8.302480|    1.085815|
|        6835|  5.3604e+00|   -5.712981|   -5.921569|   -6.439548|   -5.856822|   -5.992075|   -8.302209|    1.085808|
|        6836|  5.3603e+00|   -5.712963|   -5.921430|   -6.439703|   -5.856687|   -5.991908|   -8.301943|    1.085802|
|        6837|  5.3603e+00|   -5.712951|   -5.921297|   -6.439860|   -5.856557|   -5.991745|   -8.301680|    1.085796|
|        6838|  5.3603e+00|   -5.712944|   -5.921171|   -6.440020|   -5.856434|   -5.991588|   -8.301421|    1.085790|
|        6839|  5.3603e+00|   -5.712944|   -5.921051|   -6.440182|   -5.856316|   -5.991437|   -8.301166|    1.085784|
|        6840|  5.3602e+00|   -5.712950|   -5.920937|   -6.440346|   -5.856204|   -5.991291|   -8.300915|    1.085778|
|        6841|  5.3602e+00|   -5.712962|   -5.920828|   -6.440512|   -5.856098|   -5.991149|   -8.300668|    1.085772|
|        6842|  5.3602e+00|   -5.712979|   -5.920726|   -6.440681|   -5.855997|   -5.991013|   -8.300424|    1.085766|
|        6843|  5.3602e+00|   -5.713002|   -5.920629|   -6.440852|   -5.855901|   -5.990882|   -8.300185|    1.085760|
|        6844|  5.3601e+00|   -5.713031|   -5.920539|   -6.441025|   -5.855811|   -5.990757|   -8.299950|    1.085754|
|        6845|  5.3601e+00|   -5.713066|   -5.920454|   -6.441200|   -5.855727|   -5.990636|   -8.299719|    1.085748|
|        6846|  5.3601e+00|   -5.713107|   -5.920376|   -6.441377|   -5.855649|   -5.990521|   -8.299492|    1.085742|
|        6847|  5.3601e+00|   -5.713153|   -5.920303|   -6.441555|   -5.855576|   -5.990410|   -8.299269|    1.085736|
|        6848|  5.3600e+00|   -5.713207|   -5.920237|   -6.441735|   -5.855509|   -5.990306|   -8.299050|    1.085730|
|        6849|  5.3600e+00|   -5.713278|   -5.920192|   -6.441919|   -5.855460|   -5.990220|   -8.298835|    1.085724|
|        6850|  5.3600e+00|   -5.713354|   -5.920152|   -6.442104|   -5.855416|   -5.990138|   -8.298625|    1.085718|
|        6851|  5.3600e+00|   -5.713435|   -5.920117|   -6.442291|   -5.855377|   -5.990061|   -8.298418|    1.085712|
|        6852|  5.3600e+00|   -5.713520|   -5.920087|   -6.442479|   -5.855343|   -5.989988|   -8.298215|    1.085706|
|        6853|  5.3599e+00|   -5.713611|   -5.920061|   -6.442668|   -5.855314|   -5.989919|   -8.298017|    1.085700|
|        6854|  5.3599e+00|   -5.713707|   -5.920041|   -6.442859|   -5.855289|   -5.989854|   -8.297822|    1.085694|
|        6855|  5.3599e+00|   -5.713809|   -5.920026|   -6.443051|   -5.855270|   -5.989794|   -8.297632|    1.085688|
|        6856|  5.3599e+00|   -5.713916|   -5.920017|   -6.443246|   -5.855257|   -5.989739|   -8.297446|    1.085682|
|        6857|  5.3598e+00|   -5.714029|   -5.920013|   -6.443442|   -5.855248|   -5.989688|   -8.297264|    1.085676|
|        6858|  5.3598e+00|   -5.714147|   -5.920014|   -6.443640|   -5.855245|   -5.989642|   -8.297086|    1.085671|
|        6859|  5.3598e+00|   -5.714269|   -5.920020|   -6.443839|   -5.855246|   -5.989601|   -8.296912|    1.085665|
|        6860|  5.3598e+00|   -5.714397|   -5.920032|   -6.444039|   -5.855253|   -5.989564|   -8.296743|    1.085659|
|        6861|  5.3598e+00|   -5.714530|   -5.920049|   -6.444240|   -5.855264|   -5.989531|   -8.296578|    1.085653|
|        6862|  5.3597e+00|   -5.714669|   -5.920071|   -6.444444|   -5.855281|   -5.989503|   -8.296416|    1.085647|
|        6863|  5.3597e+00|   -5.714813|   -5.920098|   -6.444649|   -5.855303|   -5.989480|   -8.296260|    1.085641|
|        6864|  5.3597e+00|   -5.714962|   -5.920131|   -6.444855|   -5.855330|   -5.989461|   -8.296107|    1.085635|
|        6865|  5.3597e+00|   -5.715116|   -5.920169|   -6.445062|   -5.855362|   -5.989447|   -8.295958|    1.085630|
|        6866|  5.3596e+00|   -5.715276|   -5.920213|   -6.445271|   -5.855399|   -5.989438|   -8.295814|    1.085624|
|        6867|  5.3596e+00|   -5.715441|   -5.920263|   -6.445480|   -5.855442|   -5.989434|   -8.295674|    1.085618|
|        6868|  5.3596e+00|   -5.715612|   -5.920318|   -6.445691|   -5.855490|   -5.989434|   -8.295539|    1.085612|
|        6869|  5.3595e+00|   -5.715788|   -5.920378|   -6.445903|   -5.855543|   -5.989440|   -8.295407|    1.085607|
|        6870|  5.3595e+00|   -5.715970|   -5.920445|   -6.446116|   -5.855602|   -5.989451|   -8.295280|    1.085601|
|        6871|  5.3595e+00|   -5.716157|   -5.920517|   -6.446331|   -5.855666|   -5.989467|   -8.295157|    1.085595|
|        6872|  5.3594e+00|   -5.716350|   -5.920595|   -6.446547|   -5.855736|   -5.989488|   -8.295038|    1.085589|
|        6873|  5.3594e+00|   -5.716549|   -5.920679|   -6.446764|   -5.855811|   -5.989514|   -8.294924|    1.085584|
|        6874|  5.3594e+00|   -5.716753|   -5.920769|   -6.446982|   -5.855892|   -5.989545|   -8.294814|    1.085578|
|        6875|  5.3593e+00|   -5.716963|   -5.920865|   -6.447202|   -5.855979|   -5.989582|   -8.294708|    1.085572|
|        6876|  5.3593e+00|   -5.717179|   -5.920968|   -6.447423|   -5.856071|   -5.989625|   -8.294607|    1.085567|
|        6877|  5.3593e+00|   -5.717400|   -5.921076|   -6.447644|   -5.856169|   -5.989672|   -8.294510|    1.085561|
|        6878|  5.3593e+00|   -5.717627|   -5.921190|   -6.447867|   -5.856272|   -5.989724|   -8.294417|    1.085555|
|        6879|  5.3592e+00|   -5.717859|   -5.921310|   -6.448091|   -5.856381|   -5.989782|   -8.294329|    1.085550|
|        6880|  5.3592e+00|   -5.718097|   -5.921436|   -6.448316|   -5.856496|   -5.989845|   -8.294245|    1.085544|
|        6881|  5.3592e+00|   -5.718341|   -5.921568|   -6.448542|   -5.856616|   -5.989914|   -8.294165|    1.085538|
|        6882|  5.3592e+00|   -5.718590|   -5.921706|   -6.448769|   -5.856741|   -5.989987|   -8.294090|    1.085533|
|        6883|  5.3591e+00|   -5.718844|   -5.921850|   -6.448997|   -5.856872|   -5.990066|   -8.294019|    1.085527|
|        6884|  5.3591e+00|   -5.719105|   -5.922000|   -6.449226|   -5.857009|   -5.990150|   -8.293952|    1.085522|
|        6885|  5.3591e+00|   -5.719371|   -5.922156|   -6.449457|   -5.857151|   -5.990240|   -8.293890|    1.085516|
|        6886|  5.3591e+00|   -5.719643|   -5.922319|   -6.449687|   -5.857299|   -5.990335|   -8.293832|    1.085511|
|        6887|  5.3590e+00|   -5.719920|   -5.922487|   -6.449919|   -5.857452|   -5.990435|   -8.293779|    1.085505|
|        6888|  5.3590e+00|   -5.720202|   -5.922660|   -6.450151|   -5.857611|   -5.990540|   -8.293730|    1.085500|
|        6889|  5.3590e+00|   -5.720490|   -5.922840|   -6.450384|   -5.857775|   -5.990650|   -8.293686|    1.085494|
|        6890|  5.3589e+00|   -5.720783|   -5.923025|   -6.450618|   -5.857944|   -5.990765|   -8.293646|    1.085489|
|        6891|  5.3589e+00|   -5.721081|   -5.923216|   -6.450852|   -5.858118|   -5.990885|   -8.293610|    1.085483|
|        6892|  5.3589e+00|   -5.721385|   -5.923413|   -6.451087|   -5.858298|   -5.991010|   -8.293579|    1.085478|
|        6893|  5.3589e+00|   -5.721694|   -5.923616|   -6.451322|   -5.858483|   -5.991141|   -8.293552|    1.085472|
|        6894|  5.3589e+00|   -5.722008|   -5.923824|   -6.451559|   -5.858673|   -5.991276|   -8.293530|    1.085467|
|        6895|  5.3588e+00|   -5.722327|   -5.924038|   -6.451796|   -5.858869|   -5.991416|   -8.293512|    1.085461|
|        6896|  5.3588e+00|   -5.722652|   -5.924257|   -6.452033|   -5.859070|   -5.991562|   -8.293498|    1.085456|
|        6897|  5.3588e+00|   -5.722982|   -5.924482|   -6.452271|   -5.859276|   -5.991712|   -8.293489|    1.085451|
|        6898|  5.3587e+00|   -5.723316|   -5.924713|   -6.452510|   -5.859487|   -5.991867|   -8.293485|    1.085445|
|        6899|  5.3587e+00|   -5.723656|   -5.924950|   -6.452749|   -5.859703|   -5.992027|   -8.293485|    1.085440|
|        6900|  5.3587e+00|   -5.724001|   -5.925192|   -6.452988|   -5.859924|   -5.992192|   -8.293489|    1.085435|
+-----------------------------------------------------------------------+
|        File Writing Summary       |              Filename             |
+-----------------------------------------------------------------------+
|SU2 binary restart                 |restart_flow.dat                   |
|Paraview                           |flow.vtu                           |
|Paraview surface                   |surface_flow.vtu                   |
+-----------------------------------------------------------------------+
+--------------------------------------------------------------------------------------------------------------------+
|  Inner_Iter|   Time(sec)|    rms[Rho]|   rms[RhoU]|   rms[RhoV]|   rms[RhoW]|   rms[RhoE]|     rms[nu]|          CD|
+--------------------------------------------------------------------------------------------------------------------+
|        6901|  5.3616e+00|   -5.724351|   -5.925439|   -6.453227|   -5.860151|   -5.992361|   -8.293498|    1.085429|
|        6902|  5.3615e+00|   -5.724706|   -5.925692|   -6.453467|   -5.860382|   -5.992535|   -8.293512|    1.085424|
|        6903|  5.3615e+00|   -5.725066|   -5.925950|   -6.453707|   -5.860618|   -5.992714|   -8.293530|    1.085419|
|        6904|  5.3615e+00|   -5.725430|   -5.926213|   -6.453948|   -5.860860|   -5.992898|   -8.293552|    1.085413|
|        6905|  5.3615e+00|   -5.725800|   -5.926483|   -6.454189|   -5.861106|   -5.993087|   -8.293579|    1.085408|
|        6906|  5.3615e+00|   -5.726175|   -5.926757|   -6.454431|   -5.861358|   -5.993280|   -8.293611|    1.085403|
|        6907|  5.3614e+00|   -5.726555|   -5.927037|   -6.454675|   -5.861615|   -5.993479|   -8.293647|    1.085398|
|        6908|  5.3614e+00|   -5.726941|   -5.927323|   -6.454920|   -5.861877|   -5.993683|   -8.293687|    1.085392|
|        6909|  5.3614e+00|   -5.727331|   -5.927614|   -6.455165|   -5.862145|   -5.993892|   -8.293732|    1.085387|
|        6910|  5.3614e+00|   -5.727726|   -5.927911|   -6.455410|   -5.862417|   -5.994105|   -8.293782|    1.085382|
|        6911|  5.3614e+00|   -5.728126|   -5.928213|   -6.455655|   -5.862694|   -5.994324|   -8.293836|    1.085377|
|        6912|  5.3613e+00|   -5.728531|   -5.928520|   -6.455901|   -5.862977|   -5.994546|   -8.293895|    1.085372|
|        6913|  5.3613e+00|   -5.728940|   -5.928833|   -6.456147|   -5.863264|   -5.994774|   -8.293958|    1.085367|
|        6914|  5.3613e+00|   -5.729355|   -5.929151|   -6.456393|   -5.863556|   -5.995006|   -8.294026|    1.085361|
|        6915|  5.3613e+00|   -5.729774|   -5.929474|   -6.456641|   -5.863853|   -5.995243|   -8.294099|    1.085356|
|        6916|  5.3613e+00|   -5.730197|   -5.929803|   -6.456888|   -5.864154|   -5.995484|   -8.294176|    1.085351|
|        6917|  5.3612e+00|   -5.730625|   -5.930136|   -6.457135|   -5.864461|   -5.995730|   -8.294258|    1.085346|
|        6918|  5.3612e+00|   -5.731058|   -5.930475|   -6.457383|   -5.864772|   -5.995980|   -8.294344|    1.085341|
|        6919|  5.3612e+00|   -5.731495|   -5.930819|   -6.457630|   -5.865087|   -5.996235|   -8.294435|    1.085336|
|        6920|  5.3612e+00|   -5.731937|   -5.931167|   -6.457877|   -5.865408|   -5.996494|   -8.294530|    1.085331|
|        6921|  5.3611e+00|   -5.732383|   -5.931521|   -6.458125|   -5.865733|   -5.996758|   -8.294630|    1.085326|
|        6922|  5.3611e+00|   -5.732833|   -5.931880|   -6.458373|   -5.866062|   -5.997026|   -8.294734|    1.085321|
|        6923|  5.3611e+00|   -5.733288|   -5.932244|   -6.458621|   -5.866397|   -5.997298|   -8.294844|    1.085316|
|        6924|  5.3611e+00|   -5.733747|   -5.932613|   -6.458869|   -5.866735|   -5.997575|   -8.294957|    1.085311|
|        6925|  5.3611e+00|   -5.734211|   -5.932987|   -6.459117|   -5.867078|   -5.997856|   -8.295076|    1.085306|
|        6926|  5.3610e+00|   -5.734678|   -5.933365|   -6.459365|   -5.867426|   -5.998141|   -8.295199|    1.085301|
|        6927|  5.3610e+00|   -5.735150|   -5.933749|   -6.459614|   -5.867778|   -5.998430|   -8.295326|    1.085296|
|        6928|  5.3610e+00|   -5.735627|   -5.934137|   -6.459862|   -5.868134|   -5.998724|   -8.295459|    1.085291|
|        6929|  5.3610e+00|   -5.736107|   -5.934530|   -6.460111|   -5.868495|   -5.999022|   -8.295596|    1.085286|
|        6930|  5.3609e+00|   -5.736591|   -5.934928|   -6.460359|   -5.868859|   -5.999323|   -8.295737|    1.085281|
|        6931|  5.3609e+00|   -5.737080|   -5.935330|   -6.460609|   -5.869229|   -5.999629|   -8.295883|    1.085276|
|        6932|  5.3609e+00|   -5.737572|   -5.935737|   -6.460858|   -5.869602|   -5.999939|   -8.296034|    1.085271|
|        6933|  5.3608e+00|   -5.738068|   -5.936148|   -6.461106|   -5.869980|   -6.000253|   -8.296190|    1.085267|
|        6934|  5.3608e+00|   -5.738568|   -5.936564|   -6.461355|   -5.870361|   -6.000571|   -8.296350|    1.085262|
|        6935|  5.3608e+00|   -5.739072|   -5.936984|   -6.461603|   -5.870747|   -6.000892|   -8.296515|    1.085257|
|        6936|  5.3608e+00|   -5.739580|   -5.937409|   -6.461851|   -5.871136|   -6.001218|   -8.296684|    1.085252|
|        6937|  5.3607e+00|   -5.740092|   -5.937838|   -6.462099|   -5.871529|   -6.001547|   -8.296858|    1.085247|
|        6938|  5.3607e+00|   -5.740607|   -5.938271|   -6.462346|   -5.871926|   -6.001879|   -8.297037|    1.085243|
|        6939|  5.3607e+00|   -5.741125|   -5.938709|   -6.462593|   -5.872327|   -6.002216|   -8.297220|    1.085238|
|        6940|  5.3607e+00|   -5.741647|   -5.939151|   -6.462838|   -5.872732|   -6.002555|   -8.297408|    1.085233|
|        6941|  5.3606e+00|   -5.742172|   -5.939596|   -6.463083|   -5.873140|   -6.002898|   -8.297601|    1.085228|
|        6942|  5.3606e+00|   -5.742701|   -5.940046|   -6.463327|   -5.873552|   -6.003245|   -8.297798|    1.085224|
|        6943|  5.3606e+00|   -5.743232|   -5.940500|   -6.463570|   -5.873967|   -6.003595|   -8.298000|    1.085219|
|        6944|  5.3606e+00|   -5.743767|   -5.940958|   -6.463813|   -5.874386|   -6.003948|   -8.298206|    1.085214|
|        6945|  5.3605e+00|   -5.744306|   -5.941421|   -6.464056|   -5.874809|   -6.004305|   -8.298418|    1.085210|
|        6946|  5.3605e+00|   -5.744848|   -5.941888|   -6.464299|   -5.875235|   -6.004665|   -8.298634|    1.085205|
|        6947|  5.3605e+00|   -5.745394|   -5.942358|   -6.464541|   -5.875665|   -6.005030|   -8.298854|    1.085200|
|        6948|  5.3605e+00|   -5.745943|   -5.942833|   -6.464782|   -5.876099|   -6.005397|   -8.299079|    1.085196|
|        6949|  5.3604e+00|   -5.746494|   -5.943312|   -6.465023|   -5.876536|   -6.005767|   -8.299309|    1.085191|
|        6950|  5.3604e+00|   -5.747049|   -5.943794|   -6.465264|   -5.876976|   -6.006141|   -8.299543|    1.085187|
|        6951|  5.3604e+00|   -5.747607|   -5.944280|   -6.465504|   -5.877419|   -6.006518|   -8.299783|    1.085182|
|        6952|  5.3603e+00|   -5.748168|   -5.944770|   -6.465744|   -5.877866|   -6.006898|   -8.300026|    1.085178|
|        6953|  5.3603e+00|   -5.748732|   -5.945263|   -6.465983|   -5.878316|   -6.007281|   -8.300275|    1.085173|
|        6954|  5.3603e+00|   -5.749298|   -5.945761|   -6.466222|   -5.878770|   -6.007667|   -8.300528|    1.085169|
|        6955|  5.3603e+00|   -5.749868|   -5.946262|   -6.466460|   -5.879226|   -6.008056|   -8.300785|    1.085164|
|        6956|  5.3602e+00|   -5.750441|   -5.946767|   -6.466700|   -5.879686|   -6.008449|   -8.301047|    1.085160|
|        6957|  5.3602e+00|   -5.751016|   -5.947275|   -6.466939|   -5.880150|   -6.008845|   -8.301314|    1.085155|
|        6958|  5.3602e+00|   -5.751595|   -5.947788|   -6.467177|   -5.880616|   -6.009244|   -8.301586|    1.085151|
|        6959|  5.3601e+00|   -5.752176|   -5.948303|   -6.467415|   -5.881086|   -6.009645|   -8.301862|    1.085147|
|        6960|  5.3601e+00|   -5.752761|   -5.948823|   -6.467653|   -5.881558|   -6.010050|   -8.302143|    1.085142|
|        6961|  5.3601e+00|   -5.753348|   -5.949346|   -6.467890|   -5.882034|   -6.010458|   -8.302428|    1.085138|
|        6962|  5.3601e+00|   -5.753937|   -5.949872|   -6.468126|   -5.882513|   -6.010869|   -8.302718|    1.085134|
|        6963|  5.3601e+00|   -5.754530|   -5.950402|   -6.468362|   -5.882995|   -6.011283|   -8.303013|    1.085129|
|        6964|  5.3600e+00|   -5.755124|   -5.950935|   -6.468596|   -5.883480|   -6.011699|   -8.303312|    1.085125|
|        6965|  5.3600e+00|   -5.755721|   -5.951471|   -6.468830|   -5.883968|   -6.012118|   -8.303616|    1.085121|
|        6966|  5.3600e+00|   -5.756321|   -5.952011|   -6.469064|   -5.884458|   -6.012539|   -8.303924|    1.085117|
|        6967|  5.3599e+00|   -5.756923|   -5.952554|   -6.469298|   -5.884952|   -6.012964|   -8.304237|    1.085112|
|        6968|  5.3599e+00|   -5.757528|   -5.953100|   -6.469531|   -5.885448|   -6.013391|   -8.304554|    1.085108|
|        6969|  5.3599e+00|   -5.758135|   -5.953650|   -6.469762|   -5.885947|   -6.013821|   -8.304877|    1.085104|
|        6970|  5.3599e+00|   -5.758745|   -5.954203|   -6.469993|   -5.886449|   -6.014254|   -8.305203|    1.085100|
|        6971|  5.3599e+00|   -5.759357|   -5.954759|   -6.470223|   -5.886955|   -6.014690|   -8.305535|    1.085096|
|        6972|  5.3598e+00|   -5.759972|   -5.955319|   -6.470453|   -5.887463|   -6.015128|   -8.305871|    1.085092|
|        6973|  5.3598e+00|   -5.760590|   -5.955881|   -6.470682|   -5.887973|   -6.015569|   -8.306211|    1.085087|
|        6974|  5.3598e+00|   -5.761209|   -5.956448|   -6.470911|   -5.888487|   -6.016013|   -8.306556|    1.085083|
|        6975|  5.3597e+00|   -5.761832|   -5.957017|   -6.471140|   -5.889004|   -6.016460|   -8.306906|    1.085079|
|        6976|  5.3597e+00|   -5.762456|   -5.957590|   -6.471368|   -5.889524|   -6.016910|   -8.307260|    1.085075|
|        6977|  5.3597e+00|   -5.763083|   -5.958165|   -6.471594|   -5.890046|   -6.017362|   -8.307619|    1.085071|
|        6978|  5.3597e+00|   -5.763712|   -5.958744|   -6.471820|   -5.890571|   -6.017816|   -8.307983|    1.085067|
|        6979|  5.3596e+00|   -5.764343|   -5.959326|   -6.472044|   -5.891098|   -6.018273|   -8.308351|    1.085063|
|        6980|  5.3596e+00|   -5.764976|   -5.959911|   -6.472268|   -5.891628|   -6.018733|   -8.308723|    1.085060|
|        6981|  5.3596e+00|   -5.765612|   -5.960499|   -6.472490|   -5.892161|   -6.019195|   -8.309101|    1.085056|
|        6982|  5.3596e+00|   -5.766249|   -5.961090|   -6.472712|   -5.892696|   -6.019659|   -8.309482|    1.085052|
|        6983|  5.3596e+00|   -5.766888|   -5.961683|   -6.472933|   -5.893234|   -6.020126|   -8.309869|    1.085048|
|        6984|  5.3595e+00|   -5.767530|   -5.962281|   -6.473155|   -5.893775|   -6.020596|   -8.310260|    1.085044|
|        6985|  5.3595e+00|   -5.768174|   -5.962881|   -6.473377|   -5.894318|   -6.021069|   -8.310655|    1.085040|
|        6986|  5.3595e+00|   -5.768821|   -5.963484|   -6.473599|   -5.894865|   -6.021545|   -8.311055|    1.085036|
|        6987|  5.3594e+00|   -5.769469|   -5.964090|   -6.473819|   -5.895413|   -6.022023|   -8.311460|    1.085033|
|        6988|  5.3594e+00|   -5.770119|   -5.964699|   -6.474039|   -5.895965|   -6.022503|   -8.311869|    1.085029|
|        6989|  5.3594e+00|   -5.770771|   -5.965311|   -6.474257|   -5.896518|   -6.022985|   -8.312282|    1.085025|
