Nodes:  tri[0342,0345]
Tasks:  128
NPN:    64
Config: /scratch/anthonyy/reentry/orion/config/generated/m6_aoa50.cfg

-------------------------------------------------------------------------
|    ___ _   _ ___                                                      |
|   / __| | | |_  )   Release 7.5.1 "Blackbird"                         |
|   \__ \ |_| |/ /                                                      |
|   |___/\___//___|   Suite (Computational Fluid Dynamics Code)         |
|                                                                       |
-------------------------------------------------------------------------
| SU2 Project Website: https://su2code.github.io                        |
|                                                                       |
| The SU2 Project is maintained by the SU2 Foundation                   |
| (http://su2foundation.org)                                            |
-------------------------------------------------------------------------
| Copyright 2012-2023, SU2 Contributors                                 |
|                                                                       |
| SU2 is free software; you can redistribute it and/or                  |
| modify it under the terms of the GNU Lesser General Public            |
| License as published by the Free Software Foundation; either          |
| version 2.1 of the License, or (at your option) any later version.    |
|                                                                       |
| SU2 is distributed in the hope that it will be useful,                |
| but WITHOUT ANY WARRANTY; without even the implied warranty of        |
| MERCHANTABILITY or FITNESS FOR A PARTICULAR PURPOSE. See the GNU      |
| Lesser General Public License for more details.                       |
|                                                                       |
| You should have received a copy of the GNU Lesser General Public      |
| License along with SU2. If not, see <http://www.gnu.org/licenses/>.   |
-------------------------------------------------------------------------

Parsing config file for zone 0

----------------- Physical Case Definition ( Zone 0 ) -------------------
Compressible RANS equations.
Turbulence model: Spalart-Allmaras-noft2
Hybrid RANS/LES: No Hybrid RANS/LES
Mach number: 6.
Angle of attack (AoA): 50 deg, and angle of sideslip (AoS): 0 deg.
Reynolds number: 6.86229e+08. Reference length 5.
No restart solution, use the values at infinity (freestream).
Non-Dimensional simulation (V=1.0, Rho=1.0, T=1.0 at the farfield).
The reference area will be computed using y(2D) or z(3D) projection.
The semi-span will be computed using the max y(3D) value.
The reference length is 0.64607 m.
Reference origin for moment evaluation is (0.25, 0, 0).
Surface(s) where the force coefficients are evaluated: ORION_SURFACE.

Input mesh file name: ../../mesh/fine.su2

--------------- Space Numerical Integration ( Zone 0 ) ------------------
Jameson-Schmidt-Turkel scheme (2nd order in space) for the flow inviscid terms.
JST viscous coefficients (2nd & 4th): 0.5, 0.02.
The method includes a grid stretching correction (p = 0.3).
Scalar upwind solver for the turbulence model.
First order integration in space.
Average of gradients with correction (viscous flow terms).
Average of gradients with correction (viscous turbulence terms).
Gradient for upwind reconstruction: Green-Gauss.
Gradient for viscous and source terms: Green-Gauss.

--------------- Time Numerical Integration  ( Zone 0 ) ------------------
Local time stepping (steady state simulation).
Euler implicit method for the flow equations.
FGMRES is used for solving the linear system.
Using a ILU(0) preconditioning.
Convergence criteria of the linear solver: 1e-06.
Max number of linear iterations: 100.
CFL adaptation. Factor down: 0.5, factor up: 1.1,
                lower limit: 0.05, upper limit: 0.5,
                acceptable linear residual: 0.001.
Courant-Friedrichs-Lewy number:     0.03
Euler implicit time integration for the turbulence model.

------------------ Convergence Criteria  ( Zone 0 ) ---------------------
Maximum number of solver subiterations: 999999.
Begin convergence monitoring at iteration 5.
Residual minimum value: 1e-8.
Cauchy series min. value: 1e-10.
Number of Cauchy elements: 100.
Begin windowed time average at iteration 0.

-------------------- Output Information ( Zone 0 ) ----------------------
File writing frequency: 
+------------------------------------+
|                     File| Frequency|
+------------------------------------+
|                  RESTART|       150|
|                 PARAVIEW|       150|
|         SURFACE_PARAVIEW|       150|
+------------------------------------+
Writing the convergence history file every 1 inner iterations.
Writing the screen convergence history every 1 inner iterations.
The tabular file format is CSV (.csv).
Convergence history file name: history.
Forces breakdown file name: forces_breakdown.dat.
Surface file name: surface_flow.
Volume file name: flow.
Restart file name: restart_flow.

------------- Config File Boundary Information ( Zone 0 ) ---------------
+-----------------------------------------------------------------------+
|                        Marker Type|                        Marker Name|
+-----------------------------------------------------------------------+
|                          Far-field|                           FARFIELD|
+-----------------------------------------------------------------------+
|                     Heat flux wall|                      ORION_SURFACE|
+-----------------------------------------------------------------------+

-------------------- Output Preprocessing ( Zone 0 ) --------------------

WARNING: SURFACE_PRESSURE_DROP can only be computed for at least 2 surfaces (outlet, inlet, ...)

Screen output fields: INNER_ITER, WALL_TIME, RMS_DENSITY, RMS_MOMENTUM-X, RMS_MOMENTUM-Y, RMS_MOMENTUM-Z, RMS_ENERGY, RMS_NU_TILDE, DRAG
History output group(s): ITER, RMS_RES
Convergence field(s): RMS_DENSITY
Warning: No (valid) fields chosen for time convergence monitoring. Time convergence monitoring inactive.
Volume output fields: MACH, PRESSURE, TEMPERATURE, DENSITY, HEAT_FLUX, Y_PLUS, COORDINATES, SOLUTION

------------------- Geometry Preprocessing ( Zone 0 ) -------------------
Three dimensional problem.
62211324 grid points before partitioning.
190879888 volume elements before partitioning.
2 surface markers.
4104 boundary elements in index 0 (Marker = FARFIELD).
1824836 boundary elements in index 1 (Marker = ORION_SURFACE).
Executing the partitioning functions.
Building the graph adjacency structure.
Calling ParMETIS... graph partitioning complete (4959327 edge cuts).
Distributing ParMETIS coloring.
Rebalancing vertices.
Rebalancing volume element connectivity.
Rebalancing markers and surface elements.
66952290 vertices including ghost points. 
197997438 interior elements including halo cells. 
103171259 tetrahedra.
94500655 prisms.
325524 pyramids.
Establishing MPI communication patterns.
Setting point connectivity.
Renumbering points (Reverse Cuthill McKee Ordering).
Recomputing point connectivity.
Setting element connectivity.
Checking the numerical grid orientation.
All volume elements are correctly orientend.
All surface elements are correctly orientend.
Identifying edges and vertices.
Setting the control volume structure.
Volume of the computational grid: 535693.
Searching for the closest normal neighbors to the surfaces.
Storing a mapping from global to local point index.
Compute the surface curvature.
Max K: 132.896. Mean K: 3.9104. Standard deviation K: 7.49569.
Checking for periodicity.
Computing mesh quality statistics for the dual control volumes.
+--------------------------------------------------------------+
|           Mesh Quality Metric|        Minimum|        Maximum|
+--------------------------------------------------------------+
|    Orthogonality Angle (deg.)|        53.0661|             90|
|     CV Face Area Aspect Ratio|        1.01143|        75298.5|
|           CV Sub-Volume Ratio|        1.00029|        45.0258|
+--------------------------------------------------------------+
Finding max control volume width.
Communicating number of neighbors.
Reference area = 11.531 m^2.
Semi-span length = 2.49999 m.
Wetted area = 57.9072 m^2.
Area projection in the x-plane = 19.6343 m^2, y-plane = 11.531 m^2, z-plane = 11.531 m^2.
Max. coordinate in the x-direction = 2.575 m, y-direction = 2.49999 m, z-direction = 2.49999 m.
Min. coordinate in the x-direction = -0.71 m, y-direction = -2.49999 m, z-direction = -2.5 m.
Computing wall distances.

-------------------- Solver Preprocessing ( Zone 0 ) --------------------
Viscous flow: Computing pressure using the ideal gas law
based on the free-stream temperature and a density computed
from the Reynolds number.
Force coefficients computed using free-stream values.

-- Models:
+------------------------------------------------------------------------------+
|          Viscosity Model|        Conductivity Model|              Fluid Model|
+------------------------------------------------------------------------------+
|               SUTHERLAND|          CONSTANT_PRANDTL|             STANDARD_AIR|
+------------------------------------------------------------------------------+
-- Fluid properties:
+------------------------------------------------------------------------------+
|                  Name|    Dim. value|    Ref. value|      Unit|Non-dim. value|
+------------------------------------------------------------------------------+
|        Ref. Viscosity|     1.716e-05|       2455.73|   N.s/m^2|   6.98773e-09|
|      Sutherland Temp.|        273.15|        288.15|         K|      0.947944|
|     Sutherland Const.|         110.4|        288.15|         K|      0.383134|
+------------------------------------------------------------------------------+
|        Prandtl (Lam.)|             -|             -|         -|          0.72|
|       Prandtl (Turb.)|             -|             -|         -|           0.9|
+------------------------------------------------------------------------------+
|          Gas Constant|       287.058|       14467.7|  N.m/kg.K|     0.0198413|
|      Spec. Heat Ratio|             -|             -|         -|           1.4|
+------------------------------------------------------------------------------+
-- Initial and free-stream conditions:
+------------------------------------------------------------------------------+
|                  Name|    Dim. value|    Ref. value|      Unit|Non-dim. value|
+------------------------------------------------------------------------------+
|       Static Pressure|       99485.6|   5.01407e+06|        Pa|     0.0198413|
|               Density|       1.20274|       1.20274|    kg/m^3|             1|
|           Temperature|        288.15|        288.15|         K|             1|
|          Total Energy|   2.29123e+06|   4.16887e+06|   m^2/s^2|      0.549603|
|            Velocity-X|       1312.43|       2041.78|       m/s|      0.642788|
|            Velocity-Y|             0|       2041.78|       m/s|             0|
|            Velocity-Z|        1564.1|       2041.78|       m/s|      0.766044|
|    Velocity Magnitude|       2041.78|       2041.78|       m/s|             1|
+------------------------------------------------------------------------------+
|             Viscosity|    1.7893e-05|       2455.73|   N.s/m^2|    7.2862e-09|
|          Conductivity|             -|   3.55289e+07|   W/m^2.K|             -|
|     Turb. Kin. Energy|       15633.3|   4.16887e+06|   m^2/s^2|       0.00375|
|     Spec. Dissipation|   1.05085e+08|       2041.78|       1/s|       51467.1|
+------------------------------------------------------------------------------+
|           Mach Number|             -|             -|         -|             6|
|       Reynolds Number|             -|             -|         -|   6.86229e+08|
+------------------------------------------------------------------------------+
Initialize Jacobian structure (Navier-Stokes). MG level: 0.
Initialize Jacobian structure (SA model).

------------------- Numerics Preprocessing ( Zone 0 ) -------------------

----------------- Integration Preprocessing ( Zone 0 ) ------------------

------------------- Iteration Preprocessing ( Zone 0 ) ------------------
Euler/Navier-Stokes/RANS fluid iteration.

------------------------------ Begin Solver -----------------------------

Simulation Run using the Single-zone Driver
WARNING: SU2 was not compiled for an AVX-capable architecture. Performance could be better,
         see https://su2code.github.io/docs_v7/Build-SU2-Linux-MacOS/#compiler-optimizations
+--------------------------------------------------------------------------------------------------------------------+
|  Inner_Iter|   Time(sec)|    rms[Rho]|   rms[RhoU]|   rms[RhoV]|   rms[RhoW]|   rms[RhoE]|     rms[nu]|          CD|
+--------------------------------------------------------------------------------------------------------------------+
|           0|  9.5580e+00|   -5.329754|  -16.168663|  -17.684548|  -16.090119|   -5.574303|  -13.251871|    0.378234|
|           1|  7.4756e+00|   -5.480260|   -5.709422|   -6.420852|   -5.592403|   -5.714750|  -13.039500|    0.393413|
|           2|  6.7649e+00|   -5.482189|   -5.719205|   -6.427471|   -5.600883|   -5.717093|  -13.058771|    0.409886|
|           3|  6.4610e+00|   -5.484124|   -5.728304|   -6.434161|   -5.608695|   -5.719245|  -13.078497|    0.427733|
|           4|  6.3280e+00|   -5.486071|   -5.736926|   -6.440932|   -5.616022|   -5.721244|  -13.098293|    0.447046|
|           5|  6.2164e+00|   -5.488033|   -5.745219|   -6.447788|   -5.622997|   -5.723115|  -13.117985|    0.467928|
|           6|  6.1254e+00|   -5.490008|   -5.753298|   -6.454722|   -5.629719|   -5.724875|  -13.137460|    0.490484|
|           7|  6.0360e+00|   -5.491989|   -5.761247|   -6.461713|   -5.636265|   -5.726531|  -13.156587|    0.514827|
|           8|  5.9714e+00|   -5.493965|   -5.769135|   -6.468727|   -5.642694|   -5.728085|  -13.175371|    0.541073|
|           9|  5.9579e+00|   -5.495921|   -5.777011|   -6.475711|   -5.649053|   -5.729535|  -13.193894|    0.569347|
|          10|  5.9578e+00|   -5.497837|   -5.784907|   -6.482593|   -5.655375|   -5.730870|  -13.212213|    0.599777|
|          11|  5.9559e+00|   -5.499685|   -5.792818|   -6.489282|   -5.661665|   -5.732075|  -13.229462|    0.632501|
|          12|  5.9548e+00|   -5.501437|   -5.800704|   -6.495666|   -5.667909|   -5.733129|  -13.246486|    0.667669|
|          13|  5.9499e+00|   -5.503052|   -5.808588|   -6.501621|   -5.674146|   -5.734003|  -13.265255|    0.705442|
|          14|  5.9437e+00|   -5.504487|   -5.816470|   -6.506975|   -5.680407|   -5.734662|  -13.282991|    0.745996|
|          15|  5.9468e+00|   -5.505704|   -5.824290|   -6.511462|   -5.686690|   -5.735075|  -13.299987|    0.789520|
|          16|  5.9452e+00|   -5.506647|   -5.831937|   -6.514780|   -5.692970|   -5.735185|  -13.316215|    0.836220|
|          17|  5.9497e+00|   -5.507253|   -5.839241|   -6.516590|   -5.699201|   -5.734922|  -13.331594|    0.886322|
|          18|  5.9827e+00|   -5.507461|   -5.845978|   -6.516493|   -5.705310|   -5.734200|  -13.346199|    0.940073|
|          19|  6.0124e+00|   -5.507220|   -5.851861|   -6.514108|   -5.711209|   -5.732935|  -13.360517|    0.997740|
|          20|  6.0400e+00|   -5.506505|   -5.856564|   -6.509081|   -5.716804|   -5.731048|  -13.373798|    1.059616|
|          21|  6.0572e+00|   -5.505323|   -5.859774|   -6.501119|   -5.722025|   -5.728487|  -13.385952|    1.126025|
|          22|  6.0799e+00|   -5.503772|   -5.861324|   -6.490042|   -5.726895|   -5.725296|  -13.397159|    1.197361|
|          23|  6.1216e+00|   -5.502001|   -5.861082|   -6.475858|   -5.731485|   -5.721595|  -13.407791|    1.274074|
|          24|  6.1748e+00|   -5.500174|   -5.858809|   -6.458709|   -5.735762|   -5.717570|  -13.417527|    1.356637|
|          25|  6.1950e+00|   -5.498608|   -5.854500|   -6.438844|   -5.739853|   -5.713646|  -13.425803|    1.445512|
|          26|  6.2120e+00|   -5.497716|   -5.848126|   -6.416503|   -5.743808|   -5.710400|  -13.433788|    1.534354|
|          27|  6.2486e+00|   -5.497837|   -5.839868|   -6.393893|   -5.747204|   -5.708605|  -13.440443|    1.621809|
|          28|  6.2847e+00|   -5.499117|   -5.830042|   -6.371613|   -5.749753|   -5.708440|  -13.445213|    1.707384|
|          29|  6.3158e+00|   -5.501432|   -5.818511|   -6.349741|   -5.751083|   -5.709678|  -13.448418|    1.790347|
|          30|  6.3406e+00|   -5.504581|   -5.805554|   -6.328309|   -5.750964|   -5.712021|  -13.450297|    1.869838|
|          31|  6.3655e+00|   -5.508365|   -5.791847|   -6.307332|   -5.749508|   -5.715213|  -13.450592|    1.944932|
|          32|  6.3879e+00|   -5.512522|   -5.778143|   -6.286830|   -5.746923|   -5.718965|  -13.449203|    2.014624|
|          33|  6.4100e+00|   -5.516665|   -5.765004|   -6.266837|   -5.743417|   -5.722849|  -13.446364|    2.077856|
|          34|  6.4289e+00|   -5.520089|   -5.752573|   -6.247378|   -5.738867|   -5.726059|  -13.442879|    2.133529|
|          35|  6.4472e+00|   -5.521846|   -5.740695|   -6.228459|   -5.733038|   -5.727520|  -13.438291|    2.180531|
|          36|  6.4632e+00|   -5.520888|   -5.729029|   -6.210079|   -5.725789|   -5.726021|  -13.432480|    2.217763|
|          37|  6.4821e+00|   -5.516361|   -5.717344|   -6.192269|   -5.717214|   -5.720536|  -13.425509|    2.244193|
|          38|  6.4985e+00|   -5.507771|   -5.705523|   -6.175131|   -5.707450|   -5.710397|  -13.417754|    2.258916|
|          39|  6.5131e+00|   -5.495172|   -5.693704|   -6.158824|   -5.696676|   -5.695551|  -13.410008|    2.261218|
|          40|  6.5383e+00|   -5.479210|   -5.682399|   -6.143552|   -5.685055|   -5.676643|  -13.402246|    2.250667|
|          41|  6.5580e+00|   -5.460848|   -5.672183|   -6.129495|   -5.672650|   -5.654772|  -13.394478|    2.227206|
|          42|  6.5757e+00|   -5.441222|   -5.663681|   -6.116749|   -5.659588|   -5.631309|  -13.386639|    2.191239|
|          43|  6.5899e+00|   -5.421435|   -5.657360|   -6.105301|   -5.646012|   -5.607630|  -13.378574|    2.143628|
|          44|  6.6005e+00|   -5.402390|   -5.653416|   -6.094984|   -5.632059|   -5.584891|  -13.370498|    2.085622|
|          45|  6.6124e+00|   -5.384758|   -5.651718|   -6.085508|   -5.617891|   -5.563975|  -13.362270|    2.018619|
|          46|  6.6236e+00|   -5.368870|   -5.651967|   -6.076529|   -5.603705|   -5.545297|  -13.354145|    1.944009|
|          47|  6.6358e+00|   -5.354820|   -5.653770|   -6.067562|   -5.589655|   -5.528980|  -13.346205|    1.863126|
|          48|  6.6459e+00|   -5.342582|   -5.656429|   -6.057769|   -5.575842|   -5.515031|  -13.338311|    1.777335|
|          49|  6.6558e+00|   -5.332076|   -5.658534|   -6.046161|   -5.562425|   -5.503422|  -13.330289|    1.688272|
|          50|  6.6654e+00|   -5.323054|   -5.658803|   -6.032054|   -5.549640|   -5.493863|  -13.321915|    1.597745|
|          51|  6.6726e+00|   -5.315149|   -5.656349|   -6.015534|   -5.537782|   -5.485811|  -13.313005|    1.507572|
|          52|  6.6793e+00|   -5.308004|   -5.650593|   -5.997260|   -5.527172|   -5.478655|  -13.303409|    1.419468|
|          53|  6.6851e+00|   -5.301363|   -5.641323|   -5.978136|   -5.518070|   -5.471873|  -13.293940|    1.335017|
|          54|  6.6924e+00|   -5.295115|   -5.628843|   -5.959129|   -5.510629|   -5.465130|  -13.285001|    1.255652|
|          55|  6.6995e+00|   -5.289275|   -5.613936|   -5.941136|   -5.504837|   -5.458318|  -13.276460|    1.182643|
|          56|  6.7092e+00|   -5.283942|   -5.597767|   -5.924894|   -5.500482|   -5.451553|  -13.267499|    1.117071|
|          57|  6.7214e+00|   -5.279262|   -5.581708|   -5.910922|   -5.497169|   -5.445134|  -13.257566|    1.059793|
|          58|  6.7317e+00|   -5.275319|   -5.567081|   -5.899491|   -5.494331|   -5.439396|  -13.246793|    1.011437|
|          59|  6.7374e+00|   -5.272056|   -5.554944|   -5.890624|   -5.491323|   -5.434537|  -13.235467|    0.972425|
|          60|  6.7456e+00|   -5.269260|   -5.546002|   -5.884137|   -5.487597|   -5.430542|  -13.224002|    0.942971|
|          61|  6.7504e+00|   -5.266596|   -5.540664|   -5.879662|   -5.482855|   -5.427151|  -13.213101|    0.923078|
|          62|  6.7563e+00|   -5.263689|   -5.538940|   -5.876714|   -5.477182|   -5.423936|  -13.203254|    0.912555|
|          63|  6.7632e+00|   -5.260240|   -5.540425|   -5.874770|   -5.471021|   -5.420416|  -13.194953|    0.911025|
|          64|  6.7680e+00|   -5.256122|   -5.544366|   -5.873362|   -5.465042|   -5.416204|  -13.188484|    0.917956|
|          65|  6.7737e+00|   -5.251437|   -5.549721|   -5.872186|   -5.459971|   -5.411164|  -13.183973|    0.932680|
|          66|  6.7768e+00|   -5.246534|   -5.555361|   -5.871160|   -5.456432|   -5.405553|  -13.181274|    0.954406|
|          67|  6.7798e+00|   -5.241979|   -5.560322|   -5.870410|   -5.454842|   -5.400030|  -13.179485|    0.982236|
|          68|  6.7844e+00|   -5.238407|   -5.564046|   -5.870192|   -5.455351|   -5.395487|  -13.177989|    1.015176|
|          69|  6.7881e+00|   -5.236374|   -5.566520|   -5.870794|   -5.457838|   -5.392778|  -13.176386|    1.052154|
|          70|  6.7929e+00|   -5.236284|   -5.568139|   -5.872431|   -5.461947|   -5.392563|  -13.174333|    1.092129|
|          71|  6.7960e+00|   -5.238345|   -5.569486|   -5.875163|   -5.467136|   -5.395191|  -13.171462|    1.134101|
|          72|  6.7994e+00|   -5.242433|   -5.571075|   -5.878861|   -5.472731|   -5.400529|  -13.168041|    1.177077|
|          73|  6.8081e+00|   -5.248094|   -5.573185|   -5.883244|   -5.478073|   -5.407981|  -13.164570|    1.220115|
|          74|  6.8166e+00|   -5.254710|   -5.575763|   -5.887955|   -5.482665|   -5.416672|  -13.160403|    1.262297|
|          75|  6.8214e+00|   -5.261584|   -5.578521|   -5.892656|   -5.486258|   -5.425547|  -13.155724|    1.302774|
|          76|  6.8260e+00|   -5.268076|   -5.581124|   -5.897116|   -5.488876|   -5.433602|  -13.151339|    1.340774|
|          77|  6.8302e+00|   -5.273731|   -5.583383|   -5.901259|   -5.490765|   -5.440118|  -13.148160|    1.375614|
|          78|  6.8334e+00|   -5.278346|   -5.585290|   -5.905183|   -5.492294|   -5.444848|  -13.146756|    1.406711|
|          79|  6.8363e+00|   -5.282050|   -5.587116|   -5.909135|   -5.493850|   -5.448153|  -13.147226|    1.433590|
|          80|  6.8390e+00|   -5.285285|   -5.589354|   -5.913417|   -5.495747|   -5.450907|  -13.148945|    1.455879|
|          81|  6.8413e+00|   -5.288590|   -5.592521|   -5.918267|   -5.498156|   -5.454071|  -13.151102|    1.473314|
|          82|  6.8434e+00|   -5.292376|   -5.596960|   -5.923805|   -5.501078|   -5.458304|  -13.153001|    1.485742|
|          83|  6.8465e+00|   -5.296809|   -5.602680|   -5.930005|   -5.504383|   -5.463829|  -13.154179|    1.493119|
|          84|  6.8480e+00|   -5.301804|   -5.609344|   -5.936720|   -5.507877|   -5.470449|  -13.154925|    1.495517|
|          85|  6.8495e+00|   -5.307076|   -5.616434|   -5.943714|   -5.511364|   -5.477667|  -13.155572|    1.493132|
|          86|  6.8517e+00|   -5.312256|   -5.623412|   -5.950711|   -5.514692|   -5.484861|  -13.156302|    1.486279|
|          87|  6.8540e+00|   -5.317020|   -5.629862|   -5.957455|   -5.517794|   -5.491464|  -13.157291|    1.475400|
|          88|  6.8571e+00|   -5.321169|   -5.635540|   -5.963751|   -5.520686|   -5.497108|  -13.158626|    1.461054|
|          89|  6.8598e+00|   -5.324654|   -5.640376|   -5.969506|   -5.523466|   -5.501677|  -13.160286|    1.443909|
|          90|  6.8655e+00|   -5.327583|   -5.644390|   -5.974740|   -5.526274|   -5.505319|  -13.162186|    1.424718|
|          91|  6.8752e+00|   -5.330186|   -5.647637|   -5.979554|   -5.529259|   -5.508379|  -13.164148|    1.404267|
|          92|  6.8824e+00|   -5.332758|   -5.650175|   -5.984098|   -5.532542|   -5.511311|  -13.165983|    1.383355|
|          93|  6.8871e+00|   -5.335608|   -5.652099|   -5.988528|   -5.536189|   -5.514581|  -13.167893|    1.362766|
|          94|  6.8920e+00|   -5.338991|   -5.653581|   -5.992964|   -5.540191|   -5.518555|  -13.169991|    1.343234|
|          95|  6.8936e+00|   -5.343029|   -5.654841|   -5.997485|   -5.544446|   -5.523401|  -13.172189|    1.325412|
|          96|  6.8951e+00|   -5.347673|   -5.656126|   -6.002122|   -5.548760|   -5.529056|  -13.174284|    1.309861|
|          97|  6.8967e+00|   -5.352745|   -5.657696|   -6.006876|   -5.552892|   -5.535298|  -13.176042|    1.297036|
|          98|  6.8984e+00|   -5.357989|   -5.659759|   -6.011697|   -5.556609|   -5.541813|  -13.177297|    1.287284|
|          99|  6.9008e+00|   -5.363099|   -5.662370|   -6.016512|   -5.559732|   -5.548216|  -13.177910|    1.280834|
|         100|  6.9020e+00|   -5.367742|   -5.665428|   -6.021220|   -5.562168|   -5.554089|  -13.177733|    1.277803|
|         101|  6.9032e+00|   -5.371637|   -5.668722|   -6.025714|   -5.563934|   -5.559058|  -13.177001|    1.278193|
|         102|  6.9038e+00|   -5.374597|   -5.672038|   -6.029896|   -5.565147|   -5.562856|  -13.176155|    1.281902|
|         103|  6.9045e+00|   -5.376578|   -5.675197|   -6.033700|   -5.565982|   -5.565400|  -13.175553|    1.288724|
|         104|  6.9065e+00|   -5.377689|   -5.678103|   -6.037096|   -5.566637|   -5.566814|  -13.175338|    1.298363|
|         105|  6.9085e+00|   -5.378159|   -5.680722|   -6.040085|   -5.567287|   -5.567394|  -13.175525|    1.310438|
|         106|  6.9087e+00|   -5.378290|   -5.683082|   -6.042686|   -5.568064|   -5.567541|  -13.175994|    1.324487|
|         107|  6.9156e+00|   -5.378381|   -5.685195|   -6.044934|   -5.569037|   -5.567667|  -13.176537|    1.339995|
|         108|  6.9199e+00|   -5.378660|   -5.687009|   -6.046849|   -5.570207|   -5.568089|  -13.176861|    1.356435|
|         109|  6.9224e+00|   -5.379271|   -5.688425|   -6.048450|   -5.571530|   -5.569011|  -13.176601|    1.373280|
|         110|  6.9248e+00|   -5.380252|   -5.689327|   -6.049732|   -5.572915|   -5.570482|  -13.175766|    1.390009|
|         111|  6.9254e+00|   -5.381558|   -5.689702|   -6.050680|   -5.574242|   -5.572428|  -13.174531|    1.406135|
|         112|  6.9263e+00|   -5.383047|   -5.689636|   -6.051271|   -5.575374|   -5.574640|  -13.173026|    1.421219|
|         113|  6.9263e+00|   -5.384517|   -5.689310|   -6.051489|   -5.576160|   -5.576842|  -13.171315|    1.434877|
|         114|  6.9263e+00|   -5.385766|   -5.688959|   -6.051328|   -5.576480|   -5.578770|  -13.169396|    1.446786|
|         115|  6.9271e+00|   -5.386619|   -5.688816|   -6.050788|   -5.576253|   -5.580198|  -13.167134|    1.456692|
|         116|  6.9277e+00|   -5.386929|   -5.688993|   -6.049884|   -5.575459|   -5.580945|  -13.164457|    1.464409|
|         117|  6.9283e+00|   -5.386589|   -5.689447|   -6.048637|   -5.574138|   -5.580884|  -13.161275|    1.469824|
|         118|  6.9297e+00|   -5.385549|   -5.690016|   -6.047080|   -5.572386|   -5.579955|  -13.157500|    1.472900|
|         119|  6.9303e+00|   -5.383835|   -5.690495|   -6.045265|   -5.570358|   -5.578179|  -13.153409|    1.473668|
|         120|  6.9301e+00|   -5.381559|   -5.690739|   -6.043246|   -5.568231|   -5.575678|  -13.149432|    1.472228|
|         121|  6.9305e+00|   -5.378914|   -5.690677|   -6.041097|   -5.566186|   -5.572679|  -13.145883|    1.468748|
|         122|  6.9319e+00|   -5.376128|   -5.690307|   -6.038881|   -5.564374|   -5.569452|  -13.142937|    1.463452|
|         123|  6.9338e+00|   -5.373445|   -5.689716|   -6.036665|   -5.562910|   -5.566299|  -13.140688|    1.456617|
|         124|  6.9381e+00|   -5.371096|   -5.689040|   -6.034510|   -5.561869|   -5.563513|  -13.139108|    1.448563|
|         125|  6.9401e+00|   -5.369248|   -5.688362|   -6.032462|   -5.561268|   -5.561319|  -13.138176|    1.439635|
|         126|  6.9423e+00|   -5.367998|   -5.687702|   -6.030561|   -5.561086|   -5.559861|  -13.137461|    1.430194|
|         127|  6.9434e+00|   -5.367320|   -5.687015|   -6.028827|   -5.561237|   -5.559125|  -13.136455|    1.420595|
|         128|  6.9443e+00|   -5.367112|   -5.686258|   -6.027280|   -5.561604|   -5.558988|  -13.135072|    1.411187|
|         129|  6.9452e+00|   -5.367233|   -5.685471|   -6.025940|   -5.562050|   -5.559261|  -13.133366|    1.402296|
|         130|  6.9472e+00|   -5.367504|   -5.684760|   -6.024818|   -5.562423|   -5.559725|  -13.131513|    1.394216|
|         131|  6.9489e+00|   -5.367766|   -5.684243|   -6.023927|   -5.562601|   -5.560182|  -13.129766|    1.387201|
|         132|  6.9502e+00|   -5.367916|   -5.684048|   -6.023258|   -5.562515|   -5.560502|  -13.128153|    1.381460|
|         133|  6.9511e+00|   -5.367888|   -5.684264|   -6.022784|   -5.562155|   -5.560593|  -13.126629|    1.377154|
|         134|  6.9519e+00|   -5.367651|   -5.684851|   -6.022477|   -5.561579|   -5.560408|  -13.125088|    1.374389|
|         135|  6.9536e+00|   -5.367210|   -5.685637|   -6.022299|   -5.560885|   -5.559930|  -13.123476|    1.373222|
|         136|  6.9554e+00|   -5.366605|   -5.686385|   -6.022229|   -5.560206|   -5.559195|  -13.121719|    1.373658|
|         137|  6.9561e+00|   -5.365915|   -5.686863|   -6.022249|   -5.559678|   -5.558298|  -13.120011|    1.375652|
|         138|  6.9564e+00|   -5.365275|   -5.686970|   -6.022361|   -5.559423|   -5.557422|  -13.118699|    1.379113|
|         139|  6.9578e+00|   -5.364849|   -5.686750|   -6.022571|   -5.559521|   -5.556786|  -13.118157|    1.383908|
|         140|  6.9594e+00|   -5.364789|   -5.686364|   -6.022881|   -5.560000|   -5.556603|  -13.118605|    1.389870|
|         141|  6.9612e+00|   -5.365215|   -5.686077|   -6.023291|   -5.560835|   -5.557043|  -13.119700|    1.396800|
|         142|  6.9619e+00|   -5.366133|   -5.686132|   -6.023779|   -5.561933|   -5.558116|  -13.121042|    1.404477|
|         143|  6.9617e+00|   -5.367446|   -5.686645|   -6.024330|   -5.563161|   -5.559696|  -13.122219|    1.412668|
|         144|  6.9616e+00|   -5.368957|   -5.687574|   -6.024928|   -5.564358|   -5.561526|  -13.122878|    1.421132|
|         145|  6.9610e+00|   -5.370416|   -5.688773|   -6.025557|   -5.565356|   -5.563305|  -13.122791|    1.429632|
|         146|  6.9616e+00|   -5.371605|   -5.690030|   -6.026210|   -5.566040|   -5.564767|  -13.121946|    1.437937|
|         147|  6.9623e+00|   -5.372378|   -5.691163|   -6.026863|   -5.566349|   -5.565734|  -13.120731|    1.445830|
|         148|  6.9620e+00|   -5.372693|   -5.692060|   -6.027486|   -5.566300|   -5.566153|  -13.119419|    1.453112|
|         149|  6.9627e+00|   -5.372581|   -5.692684|   -6.028046|   -5.565971|   -5.566051|  -13.118156|    1.459607|
|         150|  6.9638e+00|   -5.372147|   -5.693086|   -6.028506|   -5.565478|   -5.565532|  -13.117090|    1.465169|
+-----------------------------------------------------------------------+
|        File Writing Summary       |              Filename             |
+-----------------------------------------------------------------------+
|SU2 binary restart                 |restart_flow.dat                   |
|Paraview                           |flow.vtu                           |
|Paraview surface                   |surface_flow.vtu                   |
+-----------------------------------------------------------------------+
+--------------------------------------------------------------------------------------------------------------------+
|  Inner_Iter|   Time(sec)|    rms[Rho]|   rms[RhoU]|   rms[RhoV]|   rms[RhoW]|   rms[RhoE]|     rms[nu]|          CD|
+--------------------------------------------------------------------------------------------------------------------+
|         151|  7.1045e+00|   -5.371547|   -5.693370|   -6.028852|   -5.564962|   -5.564766|  -13.116277|    1.469685|
|         152|  7.1046e+00|   -5.370940|   -5.693602|   -6.029080|   -5.564554|   -5.563945|  -13.115731|    1.473073|
|         153|  7.1047e+00|   -5.370473|   -5.693778|   -6.029205|   -5.564354|   -5.563265|  -13.115438|    1.475287|
|         154|  7.1048e+00|   -5.370255|   -5.693838|   -6.029238|   -5.564410|   -5.562882|  -13.115365|    1.476311|
|         155|  7.1055e+00|   -5.370344|   -5.693710|   -6.029191|   -5.564724|   -5.562898|  -13.115497|    1.476165|
|         156|  7.1071e+00|   -5.370753|   -5.693365|   -6.029069|   -5.565251|   -5.563354|  -13.115739|    1.474898|
|         157|  7.1077e+00|   -5.371419|   -5.692863|   -6.028865|   -5.565895|   -5.564176|  -13.116008|    1.472586|
|         158|  7.1073e+00|   -5.372218|   -5.692308|   -6.028574|   -5.566533|   -5.565200|  -13.116121|    1.469333|
|         159|  7.1068e+00|   -5.372979|   -5.691856|   -6.028188|   -5.567021|   -5.566195|  -13.115956|    1.465260|
|         160|  7.1060e+00|   -5.373538|   -5.691685|   -6.027712|   -5.567233|   -5.566948|  -13.115411|    1.460506|
|         161|  7.1054e+00|   -5.373761|   -5.691906|   -6.027146|   -5.567081|   -5.567284|  -13.114422|    1.455223|
|         162|  7.1040e+00|   -5.373549|   -5.692484|   -6.026490|   -5.566532|   -5.567078|  -13.113107|    1.449567|
|         163|  7.1035e+00|   -5.372869|   -5.693254|   -6.025741|   -5.565616|   -5.566299|  -13.111460|    1.443696|
|         164|  7.1015e+00|   -5.371736|   -5.693967|   -6.024888|   -5.564417|   -5.564964|  -13.109387|    1.437765|
|         165|  7.1004e+00|   -5.370218|   -5.694365|   -6.023925|   -5.563057|   -5.563151|  -13.106965|    1.431922|
|         166|  7.0992e+00|   -5.368451|   -5.694277|   -6.022865|   -5.561687|   -5.561011|  -13.104445|    1.426305|
|         167|  7.0982e+00|   -5.366606|   -5.693658|   -6.021727|   -5.560452|   -5.558745|  -13.102095|    1.421038|
|         168|  7.0968e+00|   -5.364872|   -5.692586|   -6.020540|   -5.559464|   -5.556588|  -13.100156|    1.416233|
|         169|  7.0957e+00|   -5.363441|   -5.691259|   -6.019337|   -5.558797|   -5.554782|  -13.098857|    1.411982|
|         170|  7.0943e+00|   -5.362461|   -5.689935|   -6.018141|   -5.558473|   -5.553522|  -13.098400|    1.408361|
|         171|  7.0933e+00|   -5.362010|   -5.688830|   -6.016968|   -5.558457|   -5.552925|  -13.098589|    1.405425|
|         172|  7.0929e+00|   -5.362041|   -5.688034|   -6.015820|   -5.558661|   -5.552950|  -13.099013|    1.403210|
|         173|  7.0927e+00|   -5.362404|   -5.687526|   -6.014693|   -5.558956|   -5.553412|  -13.099219|    1.401737|
|         174|  7.0926e+00|   -5.362874|   -5.687207|   -6.013584|   -5.559189|   -5.554027|  -13.098799|    1.401004|
|         175|  7.0916e+00|   -5.363206|   -5.686960|   -6.012499|   -5.559215|   -5.554486|  -13.097640|    1.400995|
|         176|  7.0905e+00|   -5.363208|   -5.686727|   -6.011447|   -5.558931|   -5.554543|  -13.095880|    1.401680|
|         177|  7.0900e+00|   -5.362766|   -5.686482|   -6.010438|   -5.558292|   -5.554048|  -13.093883|    1.403011|
|         178|  7.0891e+00|   -5.361875|   -5.686238|   -6.009479|   -5.557320|   -5.552988|  -13.091822|    1.404930|
|         179|  7.0879e+00|   -5.360608|   -5.686042|   -6.008565|   -5.556100|   -5.551446|  -13.089801|    1.407368|
|         180|  7.0868e+00|   -5.359099|   -5.685934|   -6.007686|   -5.554760|   -5.549573|  -13.087880|    1.410248|
|         181|  7.0856e+00|   -5.357508|   -5.685881|   -6.006842|   -5.553442|   -5.547553|  -13.086063|    1.413486|
|         182|  7.0846e+00|   -5.355982|   -5.685781|   -6.006033|   -5.552285|   -5.545566|  -13.084438|    1.416994|
|         183|  7.0832e+00|   -5.354663|   -5.685519|   -6.005268|   -5.551396|   -5.543809|  -13.083063|    1.420681|
|         184|  7.0827e+00|   -5.353668|   -5.685002|   -6.004553|   -5.550839|   -5.542456|  -13.082115|    1.424459|
|         185|  7.0819e+00|   -5.353082|   -5.684218|   -6.003895|   -5.550628|   -5.541648|  -13.081822|    1.428238|
|         186|  7.0806e+00|   -5.352952|   -5.683273|   -6.003289|   -5.550729|   -5.541465|  -13.082071|    1.431936|
|         187|  7.0801e+00|   -5.353229|   -5.682315|   -6.002725|   -5.551056|   -5.541853|  -13.082598|    1.435474|
|         188|  7.0795e+00|   -5.353799|   -5.681525|   -6.002194|   -5.551485|   -5.542649|  -13.083123|    1.438778|
|         189|  7.0805e+00|   -5.354495|   -5.681076|   -6.001693|   -5.551875|   -5.543614|  -13.083409|    1.441785|
|         190|  7.0812e+00|   -5.355131|   -5.681082|   -6.001234|   -5.552093|   -5.544490|  -13.083275|    1.444437|
|         191|  7.0808e+00|   -5.355534|   -5.681528|   -6.000830|   -5.552036|   -5.545050|  -13.082714|    1.446689|
|         192|  7.0803e+00|   -5.355589|   -5.682275|   -6.000496|   -5.551660|   -5.545149|  -13.081858|    1.448506|
|         193|  7.0801e+00|   -5.355251|   -5.683099|   -6.000235|   -5.550980|   -5.544742|  -13.080670|    1.449864|
|         194|  7.0796e+00|   -5.354537|   -5.683744|   -6.000030|   -5.550066|   -5.543861|  -13.079179|    1.450750|
|         195|  7.0789e+00|   -5.353537|   -5.684004|   -5.999868|   -5.549035|   -5.542617|  -13.077494|    1.451162|
|         196|  7.0783e+00|   -5.352396|   -5.683801|   -5.999729|   -5.548023|   -5.541178|  -13.075831|    1.451107|
|         197|  7.0775e+00|   -5.351281|   -5.683163|   -5.999597|   -5.547155|   -5.539752|  -13.074442|    1.450604|
|         198|  7.0775e+00|   -5.350377|   -5.682250|   -5.999464|   -5.546534|   -5.538576|  -13.073544|    1.449681|
|         199|  7.0769e+00|   -5.349848|   -5.681308|   -5.999322|   -5.546215|   -5.537869|  -13.073422|    1.448374|
|         200|  7.0761e+00|   -5.349798|   -5.680577|   -5.999155|   -5.546198|   -5.537777|  -13.074084|    1.446725|
|         201|  7.0750e+00|   -5.350224|   -5.680203|   -5.998949|   -5.546427|   -5.538316|  -13.075187|    1.444786|
|         202|  7.0742e+00|   -5.351003|   -5.680202|   -5.998688|   -5.546792|   -5.539332|  -13.076305|    1.442610|
|         203|  7.0739e+00|   -5.351922|   -5.680482|   -5.998366|   -5.547156|   -5.540553|  -13.077065|    1.440257|
|         204|  7.0733e+00|   -5.352731|   -5.680890|   -5.997994|   -5.547379|   -5.541653|  -13.077182|    1.437785|
|         205|  7.0724e+00|   -5.353206|   -5.681268|   -5.997596|   -5.547346|   -5.542349|  -13.076543|    1.435256|
|         206|  7.0715e+00|   -5.353214|   -5.681525|   -5.997201|   -5.546997|   -5.542465|  -13.075325|    1.432730|
|         207|  7.0710e+00|   -5.352726|   -5.681612|   -5.996834|   -5.546332|   -5.541958|  -13.073847|    1.430266|
|         208|  7.0702e+00|   -5.351819|   -5.681544|   -5.996503|   -5.545412|   -5.540919|  -13.072305|    1.427917|
|         209|  7.0693e+00|   -5.350636|   -5.681387|   -5.996206|   -5.544342|   -5.539515|  -13.070822|    1.425737|
|         210|  7.0683e+00|   -5.349354|   -5.681205|   -5.995932|   -5.543250|   -5.537952|  -13.069453|    1.423769|
|         211|  7.0675e+00|   -5.348137|   -5.681006|   -5.995667|   -5.542254|   -5.536420|  -13.068285|    1.422055|
|         212|  7.0667e+00|   -5.347125|   -5.680759|   -5.995400|   -5.541455|   -5.535104|  -13.067344|    1.420626|
|         213|  7.0661e+00|   -5.346426|   -5.680409|   -5.995124|   -5.540915|   -5.534160|  -13.066661|    1.419509|
|         214|  7.0652e+00|   -5.346097|   -5.679908|   -5.994824|   -5.540648|   -5.533688|  -13.066430|    1.418720|
|         215|  7.0647e+00|   -5.346149|   -5.679243|   -5.994487|   -5.540626|   -5.533729|  -13.066571|    1.418270|
|         216|  7.0643e+00|   -5.346523|   -5.678474|   -5.994096|   -5.540779|   -5.534230|  -13.066888|    1.418160|
|         217|  7.0634e+00|   -5.347088|   -5.677689|   -5.993638|   -5.541005|   -5.535022|  -13.067178|    1.418383|
|         218|  7.0625e+00|   -5.347678|   -5.677002|   -5.993112|   -5.541187|   -5.535876|  -13.067255|    1.418926|
|         219|  7.0617e+00|   -5.348115|   -5.676542|   -5.992532|   -5.541212|   -5.536545|  -13.066963|    1.419767|
|         220|  7.0609e+00|   -5.348257|   -5.676405|   -5.991924|   -5.540991|   -5.536831|  -13.066220|    1.420878|
|         221|  7.0603e+00|   -5.348014|   -5.676592|   -5.991323|   -5.540481|   -5.536609|  -13.065018|    1.422225|
|         222|  7.0592e+00|   -5.347360|   -5.677001|   -5.990759|   -5.539685|   -5.535844|  -13.063521|    1.423768|
|         223|  7.0585e+00|   -5.346338|   -5.677454|   -5.990250|   -5.538657|   -5.534600|  -13.061805|    1.425465|
|         224|  7.0586e+00|   -5.345045|   -5.677742|   -5.989806|   -5.537490|   -5.533008|  -13.059924|    1.427269|
|         225|  7.0583e+00|   -5.343609|   -5.677671|   -5.989426|   -5.536296|   -5.531227|  -13.057916|    1.429133|
|         226|  7.0577e+00|   -5.342180|   -5.677141|   -5.989098|   -5.535190|   -5.529442|  -13.055953|    1.431008|
|         227|  7.0565e+00|   -5.340921|   -5.676173|   -5.988814|   -5.534275|   -5.527855|  -13.054196|    1.432846|
|         228|  7.0567e+00|   -5.339974|   -5.674893|   -5.988560|   -5.533615|   -5.526655|  -13.052882|    1.434602|
|         229|  7.0563e+00|   -5.339451|   -5.673513|   -5.988320|   -5.533234|   -5.525991|  -13.052266|    1.436230|
|         230|  7.0558e+00|   -5.339406|   -5.672276|   -5.988070|   -5.533110|   -5.525945|  -13.052266|    1.437692|
|         231|  7.0549e+00|   -5.339792|   -5.671357|   -5.987788|   -5.533167|   -5.526468|  -13.052608|    1.438953|
|         232|  7.0537e+00|   -5.340461|   -5.670813|   -5.987455|   -5.533297|   -5.527374|  -13.052941|    1.439983|
|         233|  7.0529e+00|   -5.341196|   -5.670595|   -5.987066|   -5.533370|   -5.528386|  -13.052917|    1.440760|
|         234|  7.0524e+00|   -5.341755|   -5.670572|   -5.986635|   -5.533257|   -5.529189|  -13.052295|    1.441267|
|         235|  7.0519e+00|   -5.341927|   -5.670569|   -5.986192|   -5.532857|   -5.529515|  -13.050940|    1.441496|
|         236|  7.0514e+00|   -5.341589|   -5.670414|   -5.985776|   -5.532120|   -5.529203|  -13.048861|    1.441444|
|         237|  7.0509e+00|   -5.340722|   -5.669999|   -5.985426|   -5.531051|   -5.528225|  -13.046358|    1.441117|
|         238|  7.0503e+00|   -5.339415|   -5.669270|   -5.985167|   -5.529709|   -5.526692|  -13.043702|    1.440527|
|         239|  7.0497e+00|   -5.337829|   -5.668246|   -5.985011|   -5.528189|   -5.524806|  -13.041067|    1.439691|
|         240|  7.0499e+00|   -5.336157|   -5.667000|   -5.984950|   -5.526603|   -5.522797|  -13.038571|    1.438635|
|         241|  7.0505e+00|   -5.334589|   -5.665614|   -5.984967|   -5.525058|   -5.520898|  -13.036286|    1.437388|
|         242|  7.0503e+00|   -5.333278|   -5.664151|   -5.985041|   -5.523634|   -5.519305|  -13.034273|    1.435983|
|         243|  7.0502e+00|   -5.332326|   -5.662638|   -5.985141|   -5.522376|   -5.518164|  -13.032614|    1.434458|
|         244|  7.0498e+00|   -5.331771|   -5.661077|   -5.985237|   -5.521283|   -5.517549|  -13.031395|    1.432851|
|         245|  7.0495e+00|   -5.331578|   -5.659443|   -5.985297|   -5.520311|   -5.517444|  -13.030459|    1.431205|
|         246|  7.0489e+00|   -5.331628|   -5.657693|   -5.985291|   -5.519377|   -5.517719|  -13.029507|    1.429558|
|         247|  7.0479e+00|   -5.331742|   -5.655802|   -5.985202|   -5.518378|   -5.518146|  -13.028298|    1.427951|
|         248|  7.0474e+00|   -5.331721|   -5.653776|   -5.985033|   -5.517203|   -5.518455|  -13.026662|    1.426423|
|         249|  7.0466e+00|   -5.331373|   -5.651633|   -5.984804|   -5.515750|   -5.518382|  -13.024521|    1.425008|
|         250|  7.0460e+00|   -5.330573|   -5.649414|   -5.984554|   -5.513950|   -5.517746|  -13.021874|    1.423738|
|         251|  7.0450e+00|   -5.329276|   -5.647156|   -5.984328|   -5.511774|   -5.516478|  -13.018756|    1.422641|
|         252|  7.0441e+00|   -5.327513|   -5.644846|   -5.984168|   -5.509231|   -5.514607|  -13.015356|    1.421741|
|         253|  7.0433e+00|   -5.325373|   -5.642415|   -5.984096|   -5.506366|   -5.512259|  -13.011828|    1.421054|
|         254|  7.0423e+00|   -5.322984|   -5.639753|   -5.984120|   -5.503249|   -5.509608|  -13.008221|    1.420594|
|         255|  7.0417e+00|   -5.320471|   -5.636725|   -5.984226|   -5.499957|   -5.506825|  -13.004582|    1.420365|
|         256|  7.0410e+00|   -5.317948|   -5.633214|   -5.984388|   -5.496561|   -5.504066|  -13.000947|    1.420369|
|         257|  7.0406e+00|   -5.315515|   -5.629171|   -5.984574|   -5.493117|   -5.501472|  -12.997348|    1.420601|
|         258|  7.0397e+00|   -5.313241|   -5.624633|   -5.984746|   -5.489658|   -5.499144|  -12.993921|    1.421051|
|         259|  7.0400e+00|   -5.311165|   -5.619713|   -5.984869|   -5.486189|   -5.497141|  -12.990821|    1.421701|
|         260|  7.0399e+00|   -5.309272|   -5.614556|   -5.984911|   -5.482683|   -5.495454|  -12.987993|    1.422532|
|         261|  7.0400e+00|   -5.307483|   -5.609312|   -5.984846|   -5.479087|   -5.493978|  -12.985273|    1.423520|
|         262|  7.0397e+00|   -5.305664|   -5.604099|   -5.984662|   -5.475329|   -5.492530|  -12.982455|    1.424637|
|         263|  7.0394e+00|   -5.303651|   -5.598963|   -5.984369|   -5.471335|   -5.490885|  -12.979359|    1.425853|
|         264|  7.0387e+00|   -5.301283|   -5.593876|   -5.983990|   -5.467036|   -5.488822|  -12.975872|    1.427135|
|         265|  7.0379e+00|   -5.298442|   -5.588752|   -5.983572|   -5.462390|   -5.486188|  -12.971935|    1.428450|
|         266|  7.0371e+00|   -5.295073|   -5.583468|   -5.983164|   -5.457385|   -5.482916|  -12.967556|    1.429766|
|         267|  7.0365e+00|   -5.291192|   -5.577893|   -5.982808|   -5.452042|   -5.479033|  -12.962855|    1.431049|
|         268|  7.0361e+00|   -5.286885|   -5.571931|   -5.982533|   -5.446408|   -5.474659|  -12.957983|    1.432269|
|         269|  7.0354e+00|   -5.282283|   -5.565539|   -5.982347|   -5.440555|   -5.469971|  -12.953068|    1.433397|
|         270|  7.0344e+00|   -5.277533|   -5.558731|   -5.982240|   -5.434556|   -5.465152|  -12.948229|    1.434406|
|         271|  7.0343e+00|   -5.272771|   -5.551574|   -5.982185|   -5.428481|   -5.460374|  -12.943564|    1.435274|
|         272|  7.0343e+00|   -5.268116|   -5.544182|   -5.982146|   -5.422385|   -5.455785|  -12.939141|    1.435982|
|         273|  7.0339e+00|   -5.263645|   -5.536680|   -5.982091|   -5.416305|   -5.451482|  -12.935025|    1.436517|
|         274|  7.0338e+00|   -5.259383|   -5.529173|   -5.981981|   -5.410252|   -5.447503|  -12.931272|    1.436867|
|         275|  7.0331e+00|   -5.255297|   -5.521724|   -5.981786|   -5.404210|   -5.443815|  -12.927778|    1.437030|
|         276|  7.0326e+00|   -5.251290|   -5.514351|   -5.981480|   -5.398147|   -5.440303|  -12.924371|    1.437003|
|         277|  7.0321e+00|   -5.247230|   -5.507035|   -5.981052|   -5.392021|   -5.436793|  -12.920884|    1.436793|
|         278|  7.0317e+00|   -5.242976|   -5.499738|   -5.980507|   -5.385794|   -5.433098|  -12.917180|    1.436407|
|         279|  7.0315e+00|   -5.238412|   -5.492424|   -5.979876|   -5.379438|   -5.429056|  -12.913183|    1.435858|
|         280|  7.0309e+00|   -5.233479|   -5.485073|   -5.979206|   -5.372945|   -5.424576|  -12.908899|    1.435164|
|         281|  7.0305e+00|   -5.228179|   -5.477683|   -5.978546|   -5.366326|   -5.419651|  -12.904392|    1.434344|
|         282|  7.0303e+00|   -5.222574|   -5.470266|   -5.977945|   -5.359616|   -5.414348|  -12.899783|    1.433421|
|         283|  7.0298e+00|   -5.216772|   -5.462853|   -5.977434|   -5.352860|   -5.408799|  -12.895242|    1.432419|
|         284|  7.0294e+00|   -5.210903|   -5.455479|   -5.977031|   -5.346115|   -5.403169|  -12.890852|    1.431364|
|         285|  7.0289e+00|   -5.205089|   -5.448168|   -5.976728|   -5.339434|   -5.397611|  -12.886662|    1.430283|
|         286|  7.0289e+00|   -5.199426|   -5.440935|   -5.976500|   -5.332864|   -5.392250|  -12.882706|    1.429201|
|         287|  7.0289e+00|   -5.193984|   -5.433787|   -5.976317|   -5.326440|   -5.387181|  -12.878992|    1.428146|
|         288|  7.0287e+00|   -5.188794|   -5.426729|   -5.976140|   -5.320184|   -5.382451|  -12.875542|    1.427141|
|         289|  7.0287e+00|   -5.183852|   -5.419766|   -5.975933|   -5.314099|   -5.378065|  -12.872383|    1.426208|
|         290|  7.0282e+00|   -5.179126|   -5.412910|   -5.975657|   -5.308178|   -5.373988|  -12.869437|    1.425369|
|         291|  7.0277e+00|   -5.174550|   -5.406175|   -5.975283|   -5.302402|   -5.370137|  -12.866599|    1.424640|
|         292|  7.0271e+00|   -5.170045|   -5.399581|   -5.974796|   -5.296748|   -5.366397|  -12.863773|    1.424037|
|         293|  7.0274e+00|   -5.165535|   -5.393154|   -5.974202|   -5.291196|   -5.362652|  -12.860898|    1.423570|
|         294|  7.0271e+00|   -5.160959|   -5.386920|   -5.973526|   -5.285728|   -5.358801|  -12.857943|    1.423247|
|         295|  7.0266e+00|   -5.156289|   -5.380902|   -5.972813|   -5.280338|   -5.354787|  -12.854894|    1.423071|
|         296|  7.0265e+00|   -5.151530|   -5.375112|   -5.972110|   -5.275027|   -5.350603|  -12.851768|    1.423043|
|         297|  7.0263e+00|   -5.146716|   -5.369543|   -5.971466|   -5.269808|   -5.346285|  -12.848612|    1.423158|
|         298|  7.0259e+00|   -5.141907|   -5.364176|   -5.970921|   -5.264702|   -5.341911|  -12.845516|    1.423412|
|         299|  7.0254e+00|   -5.137174|   -5.358983|   -5.970492|   -5.259735|   -5.337579|  -12.842535|    1.423792|
|         300|  7.0252e+00|   -5.132584|   -5.353934|   -5.970176|   -5.254931|   -5.333383|  -12.839713|    1.424286|
+-----------------------------------------------------------------------+
|        File Writing Summary       |              Filename             |
+-----------------------------------------------------------------------+
|SU2 binary restart                 |restart_flow.dat                   |
|Paraview                           |flow.vtu                           |
|Paraview surface                   |surface_flow.vtu                   |
+-----------------------------------------------------------------------+
+--------------------------------------------------------------------------------------------------------------------+
|  Inner_Iter|   Time(sec)|    rms[Rho]|   rms[RhoU]|   rms[RhoV]|   rms[RhoW]|   rms[RhoE]|     rms[nu]|          CD|
+--------------------------------------------------------------------------------------------------------------------+
|         301|  7.0985e+00|   -5.128197|   -5.349002|   -5.969954|   -5.250315|   -5.329410|  -12.837072|    1.424879|
|         302|  7.0987e+00|   -5.124058|   -5.344177|   -5.969791|   -5.245904|   -5.325726|  -12.834616|    1.425553|
|         303|  7.0984e+00|   -5.120192|   -5.339467|   -5.969645|   -5.241706|   -5.322372|  -12.832385|    1.426290|
|         304|  7.0980e+00|   -5.116607|   -5.334892|   -5.969475|   -5.237722|   -5.319358|  -12.830433|    1.427069|
|         305|  7.0973e+00|   -5.113284|   -5.330481|   -5.969240|   -5.233942|   -5.316666|  -12.828730|    1.427868|
|         306|  7.0966e+00|   -5.110183|   -5.326267|   -5.968905|   -5.230348|   -5.314237|  -12.827199|    1.428669|
|         307|  7.0969e+00|   -5.107245|   -5.322271|   -5.968454|   -5.226918|   -5.311984|  -12.825748|    1.429450|
|         308|  7.0973e+00|   -5.104404|   -5.318506|   -5.967889|   -5.223629|   -5.309808|  -12.824292|    1.430192|
|         309|  7.0966e+00|   -5.101600|   -5.314970|   -5.967233|   -5.220457|   -5.307612|  -12.822770|    1.430877|
|         310|  7.0955e+00|   -5.098786|   -5.311644|   -5.966524|   -5.217384|   -5.305326|  -12.821138|    1.431489|
|         311|  7.0948e+00|   -5.095941|   -5.308498|   -5.965813|   -5.214402|   -5.302918|  -12.819396|    1.432013|
|         312|  7.0942e+00|   -5.093071|   -5.305498|   -5.965148|   -5.211506|   -5.300396|  -12.817570|    1.432440|
|         313|  7.0935e+00|   -5.090205|   -5.302606|   -5.964569|   -5.208703|   -5.297806|  -12.815719|    1.432759|
|         314|  7.0929e+00|   -5.087391|   -5.299796|   -5.964098|   -5.206005|   -5.295217|  -12.813907|    1.432966|
|         315|  7.0927e+00|   -5.084682|   -5.297050|   -5.963735|   -5.203425|   -5.292713|  -12.812201|    1.433057|
|         316|  7.0924e+00|   -5.082133|   -5.294362|   -5.963459|   -5.200977|   -5.290372|  -12.810646|    1.433032|
|         317|  7.0924e+00|   -5.079787|   -5.291743|   -5.963237|   -5.198672|   -5.288260|  -12.809279|    1.432894|
|         318|  7.0916e+00|   -5.077671|   -5.289215|   -5.963029|   -5.196515|   -5.286421|  -12.808136|    1.432650|
|         319|  7.0912e+00|   -5.075793|   -5.286804|   -5.962790|   -5.194505|   -5.284867|  -12.807252|    1.432307|
|         320|  7.0906e+00|   -5.074137|   -5.284533|   -5.962481|   -5.192632|   -5.283583|  -12.806584|    1.431876|
|         321|  7.0899e+00|   -5.072664|   -5.282414|   -5.962068|   -5.190880|   -5.282513|  -12.806049|    1.431370|
|         322|  7.0893e+00|   -5.071314|   -5.280447|   -5.961534|   -5.189227|   -5.281575|  -12.805549|    1.430802|
|         323|  7.0888e+00|   -5.070017|   -5.278618|   -5.960881|   -5.187652|   -5.280671|  -12.804996|    1.430189|
|         324|  7.0887e+00|   -5.068711|   -5.276907|   -5.960128|   -5.186133|   -5.279707|  -12.804324|    1.429547|
|         325|  7.0891e+00|   -5.067348|   -5.275287|   -5.959315|   -5.184652|   -5.278613|  -12.803497|    1.428892|
|         326|  7.0885e+00|   -5.065902|   -5.273732|   -5.958489|   -5.183199|   -5.277355|  -12.802510|    1.428240|
|         327|  7.0881e+00|   -5.064379|   -5.272217|   -5.957698|   -5.181773|   -5.275941|  -12.801392|    1.427609|
|         328|  7.0874e+00|   -5.062807|   -5.270726|   -5.956984|   -5.180377|   -5.274411|  -12.800201|    1.427012|
|         329|  7.0869e+00|   -5.061231|   -5.269251|   -5.956369|   -5.179022|   -5.272833|  -12.799037|    1.426465|
|         330|  7.0863e+00|   -5.059708|   -5.267794|   -5.955863|   -5.177720|   -5.271292|  -12.797975|    1.425980|
|         331|  7.0857e+00|   -5.058290|   -5.266361|   -5.955444|   -5.176485|   -5.269865|  -12.797059|    1.425568|
|         332|  7.0850e+00|   -5.057020|   -5.264966|   -5.955086|   -5.175328|   -5.268618|  -12.796310|    1.425238|
|         333|  7.0841e+00|   -5.055924|   -5.263623|   -5.954749|   -5.174254|   -5.267591|  -12.795742|    1.424996|
|         334|  7.0836e+00|   -5.055007|   -5.262346|   -5.954394|   -5.173263|   -5.266796|  -12.795379|    1.424847|
|         335|  7.0828e+00|   -5.054252|   -5.261140|   -5.953978|   -5.172349|   -5.266215|  -12.795185|    1.424793|
|         336|  7.0821e+00|   -5.053621|   -5.260007|   -5.953473|   -5.171500|   -5.265799|  -12.795085|    1.424833|
|         337|  7.0813e+00|   -5.053060|   -5.258940|   -5.952857|   -5.170700|   -5.265470|  -12.794989|    1.424964|
|         338|  7.0806e+00|   -5.052506|   -5.257928|   -5.952129|   -5.169931|   -5.265141|  -12.794814|    1.425183|
|         339|  7.0800e+00|   -5.051904|   -5.256960|   -5.951304|   -5.169176|   -5.264729|  -12.794499|    1.425482|
|         340|  7.0793e+00|   -5.051214|   -5.256025|   -5.950416|   -5.168425|   -5.264171|  -12.794021|    1.425851|
|         341|  7.0787e+00|   -5.050418|   -5.255115|   -5.949512|   -5.167669|   -5.263436|  -12.793394|    1.426282|
|         342|  7.0786e+00|   -5.049522|   -5.254224|   -5.948634|   -5.166909|   -5.262533|  -12.792651|    1.426762|
|         343|  7.0783e+00|   -5.048556|   -5.253350|   -5.947830|   -5.166151|   -5.261502|  -12.791840|    1.427279|
|         344|  7.0778e+00|   -5.047565|   -5.252495|   -5.947126|   -5.165404|   -5.260406|  -12.791047|    1.427819|
|         345|  7.0772e+00|   -5.046601|   -5.251660|   -5.946533|   -5.164681|   -5.259324|  -12.790345|    1.428368|
|         346|  7.0768e+00|   -5.045716|   -5.250847|   -5.946045|   -5.163995|   -5.258333|  -12.789769|    1.428913|
|         347|  7.0762e+00|   -5.044948|   -5.250058|   -5.945636|   -5.163357|   -5.257493|  -12.789333|    1.429441|
|         348|  7.0755e+00|   -5.044321|   -5.249294|   -5.945272|   -5.162773|   -5.256845|  -12.789047|    1.429939|
|         349|  7.0747e+00|   -5.043840|   -5.248554|   -5.944910|   -5.162244|   -5.256402|  -12.788929|    1.430395|
|         350|  7.0740e+00|   -5.043491|   -5.247842|   -5.944511|   -5.161767|   -5.256151|  -12.788962|    1.430798|
|         351|  7.0734e+00|   -5.043242|   -5.247155|   -5.944040|   -5.161333|   -5.256049|  -12.789074|    1.431140|
|         352|  7.0728e+00|   -5.043043|   -5.246493|   -5.943472|   -5.160931|   -5.256029|  -12.789180|    1.431413|
|         353|  7.0722e+00|   -5.042841|   -5.245852|   -5.942796|   -5.160545|   -5.256010|  -12.789210|    1.431610|
|         354|  7.0714e+00|   -5.042586|   -5.245233|   -5.942023|   -5.160162|   -5.255915|  -12.789113|    1.431729|
|         355|  7.0705e+00|   -5.042240|   -5.244636|   -5.941182|   -5.159774|   -5.255684|  -12.788872|    1.431768|
|         356|  7.0702e+00|   -5.041785|   -5.244064|   -5.940311|   -5.159376|   -5.255283|  -12.788493|    1.431726|
|         357|  7.0695e+00|   -5.041227|   -5.243518|   -5.939456|   -5.158966|   -5.254714|  -12.788002|    1.431606|
|         358|  7.0691e+00|   -5.040592|   -5.243001|   -5.938663|   -5.158551|   -5.254012|  -12.787442|    1.431412|
|         359|  7.0684e+00|   -5.039919|   -5.242512|   -5.937964|   -5.158141|   -5.253232|  -12.786871|    1.431149|
|         360|  7.0675e+00|   -5.039259|   -5.242050|   -5.937380|   -5.157747|   -5.252447|  -12.786372|    1.430824|
|         361|  7.0669e+00|   -5.038660|   -5.241610|   -5.936910|   -5.157382|   -5.251732|  -12.785982|    1.430447|
|         362|  7.0664e+00|   -5.038163|   -5.241188|   -5.936536|   -5.157056|   -5.251151|  -12.785720|    1.430025|
|         363|  7.0657e+00|   -5.037794|   -5.240779|   -5.936225|   -5.156777|   -5.250747|  -12.785599|    1.429571|
|         364|  7.0648e+00|   -5.037562|   -5.240384|   -5.935936|   -5.156547|   -5.250541|  -12.785636|    1.429094|
|         365|  7.0639e+00|   -5.037460|   -5.240005|   -5.935628|   -5.156365|   -5.250527|  -12.785821|    1.428607|
|         366|  7.0631e+00|   -5.037462|   -5.239643|   -5.935259|   -5.156225|   -5.250671|  -12.786092|    1.428120|
|         367|  7.0626e+00|   -5.037525|   -5.239303|   -5.934800|   -5.156117|   -5.250911|  -12.786376|    1.427645|
|         368|  7.0618e+00|   -5.037598|   -5.238987|   -5.934234|   -5.156027|   -5.251174|  -12.786610|    1.427192|
|         369|  7.0608e+00|   -5.037633|   -5.238699|   -5.933566|   -5.155945|   -5.251382|  -12.786741|    1.426770|
|         370|  7.0600e+00|   -5.037591|   -5.238442|   -5.932815|   -5.155860|   -5.251473|  -12.786738|    1.426389|
|         371|  7.0592e+00|   -5.037449|   -5.238219|   -5.932017|   -5.155767|   -5.251404|  -12.786598|    1.426057|
|         372|  7.0584e+00|   -5.037205|   -5.238030|   -5.931215|   -5.155662|   -5.251169|  -12.786338|    1.425779|
|         373|  7.0577e+00|   -5.036876|   -5.237872|   -5.930456|   -5.155551|   -5.250789|  -12.785992|    1.425560|
|         374|  7.0572e+00|   -5.036497|   -5.237739|   -5.929776|   -5.155439|   -5.250311|  -12.785603|    1.425405|
|         375|  7.0564e+00|   -5.036110|   -5.237626|   -5.929203|   -5.155337|   -5.249801|  -12.785248|    1.425315|
|         376|  7.0560e+00|   -5.035763|   -5.237521|   -5.928743|   -5.155255|   -5.249330|  -12.784978|    1.425290|
|         377|  7.0557e+00|   -5.035497|   -5.237417|   -5.928386|   -5.155202|   -5.248965|  -12.784821|    1.425328|
|         378|  7.0552e+00|   -5.035340|   -5.237308|   -5.928104|   -5.155186|   -5.248755|  -12.784793|    1.425427|
|         379|  7.0546e+00|   -5.035308|   -5.237192|   -5.927858|   -5.155210|   -5.248726|  -12.784907|    1.425584|
|         380|  7.0541e+00|   -5.035399|   -5.237074|   -5.927607|   -5.155275|   -5.248882|  -12.785169|    1.425791|
|         381|  7.0536e+00|   -5.035591|   -5.236958|   -5.927309|   -5.155375|   -5.249195|  -12.785528|    1.426044|
|         382|  7.0538e+00|   -5.035848|   -5.236849|   -5.926930|   -5.155503|   -5.249614|  -12.785920|    1.426333|
|         383|  7.0534e+00|   -5.036124|   -5.236755|   -5.926450|   -5.155646|   -5.250069|  -12.786282|    1.426652|
|         384|  7.0527e+00|   -5.036370|   -5.236682|   -5.925867|   -5.155794|   -5.250485|  -12.786558|    1.426991|
|         385|  7.0521e+00|   -5.036545|   -5.236635|   -5.925192|   -5.155937|   -5.250795|  -12.786709|    1.427341|
|         386|  7.0519e+00|   -5.036623|   -5.236619|   -5.924456|   -5.156068|   -5.250952|  -12.786724|    1.427694|
|         387|  7.0517e+00|   -5.036594|   -5.236634|   -5.923699|   -5.156184|   -5.250939|  -12.786617|    1.428040|
|         388|  7.0512e+00|   -5.036472|   -5.236679|   -5.922966|   -5.156287|   -5.250768|  -12.786416|    1.428371|
|         389|  7.0504e+00|   -5.036285|   -5.236748|   -5.922296|   -5.156382|   -5.250481|  -12.786155|    1.428678|
|         390|  7.0498e+00|   -5.036074|   -5.236835|   -5.921723|   -5.156478|   -5.250135|  -12.785892|    1.428955|
|         391|  7.0497e+00|   -5.035882|   -5.236930|   -5.921260|   -5.156585|   -5.249800|  -12.785695|    1.429194|
|         392|  7.0491e+00|   -5.035755|   -5.237024|   -5.920904|   -5.156712|   -5.249546|  -12.785603|    1.429391|
|         393|  7.0484e+00|   -5.035727|   -5.237113|   -5.920636|   -5.156867|   -5.249430|  -12.785634|    1.429542|
|         394|  7.0479e+00|   -5.035817|   -5.237194|   -5.920421|   -5.157053|   -5.249487|  -12.785804|    1.429643|
|         395|  7.0473e+00|   -5.036030|   -5.237268|   -5.920220|   -5.157273|   -5.249728|  -12.786124|    1.429693|
|         396|  7.0468e+00|   -5.036350|   -5.237341|   -5.919992|   -5.157524|   -5.250137|  -12.786563|    1.429691|
|         397|  7.0462e+00|   -5.036746|   -5.237416|   -5.919699|   -5.157797|   -5.250670|  -12.787058|    1.429639|
|         398|  7.0457e+00|   -5.037172|   -5.237498|   -5.919319|   -5.158085|   -5.251260|  -12.787541|    1.429538|
|         399|  7.0452e+00|   -5.037580|   -5.237591|   -5.918839|   -5.158374|   -5.251831|  -12.787946|    1.429391|
|         400|  7.0447e+00|   -5.037922|   -5.237698|   -5.918267|   -5.158656|   -5.252312|  -12.788225|    1.429204|
|         401|  7.0441e+00|   -5.038164|   -5.237821|   -5.917622|   -5.158921|   -5.252647|  -12.788358|    1.428981|
|         402|  7.0432e+00|   -5.038292|   -5.237961|   -5.916943|   -5.159166|   -5.252804|  -12.788351|    1.428727|
|         403|  7.0424e+00|   -5.038309|   -5.238114|   -5.916270|   -5.159393|   -5.252787|  -12.788228|    1.428451|
|         404|  7.0417e+00|   -5.038239|   -5.238278|   -5.915645|   -5.159604|   -5.252624|  -12.788024|    1.428158|
|         405|  7.0411e+00|   -5.038117|   -5.238445|   -5.915105|   -5.159808|   -5.252369|  -12.787781|    1.427856|
|         406|  7.0406e+00|   -5.037990|   -5.238611|   -5.914671|   -5.160015|   -5.252089|  -12.787571|    1.427553|
|         407|  7.0398e+00|   -5.037903|   -5.238769|   -5.914351|   -5.160233|   -5.251857|  -12.787454|    1.427256|
|         408|  7.0388e+00|   -5.037899|   -5.238914|   -5.914130|   -5.160472|   -5.251739|  -12.787458|    1.426971|
|         409|  7.0377e+00|   -5.038005|   -5.239047|   -5.913982|   -5.160738|   -5.251783|  -12.787602|    1.426706|
|         410|  7.0367e+00|   -5.038233|   -5.239169|   -5.913871|   -5.161033|   -5.252011|  -12.787903|    1.426466|
|         411|  7.0363e+00|   -5.038578|   -5.239287|   -5.913755|   -5.161357|   -5.252421|  -12.788349|    1.426256|
|         412|  7.0364e+00|   -5.039013|   -5.239405|   -5.913593|   -5.161705|   -5.252979|  -12.788884|    1.426081|
|         413|  7.0361e+00|   -5.039498|   -5.239529|   -5.913356|   -5.162066|   -5.253624|  -12.789437|    1.425945|
|         414|  7.0357e+00|   -5.039981|   -5.239662|   -5.913024|   -5.162431|   -5.254281|  -12.789934|    1.425850|
|         415|  7.0351e+00|   -5.040414|   -5.239806|   -5.912597|   -5.162788|   -5.254874|  -12.790317|    1.425797|
|         416|  7.0345e+00|   -5.040754|   -5.239963|   -5.912087|   -5.163126|   -5.255335|  -12.790551|    1.425786|
|         417|  7.0340e+00|   -5.040977|   -5.240133|   -5.911525|   -5.163441|   -5.255622|  -12.790632|    1.425818|
|         418|  7.0336e+00|   -5.041078|   -5.240314|   -5.910949|   -5.163731|   -5.255722|  -12.790580|    1.425891|
|         419|  7.0329e+00|   -5.041074|   -5.240503|   -5.910402|   -5.163999|   -5.255653|  -12.790424|    1.426001|
|         420|  7.0323e+00|   -5.040995|   -5.240697|   -5.909923|   -5.164250|   -5.255459|  -12.790206|    1.426146|
|         421|  7.0321e+00|   -5.040885|   -5.240893|   -5.909542|   -5.164494|   -5.255203|  -12.789980|    1.426321|
|         422|  7.0316e+00|   -5.040795|   -5.241088|   -5.909272|   -5.164741|   -5.254960|  -12.789829|    1.426521|
|         423|  7.0313e+00|   -5.040771|   -5.241279|   -5.909114|   -5.165001|   -5.254806|  -12.789799|    1.426741|
|         424|  7.0307e+00|   -5.040853|   -5.241468|   -5.909044|   -5.165283|   -5.254801|  -12.789918|    1.426976|
|         425|  7.0301e+00|   -5.041062|   -5.241658|   -5.909031|   -5.165592|   -5.254983|  -12.790199|    1.427218|
|         426|  7.0298e+00|   -5.041401|   -5.241853|   -5.909033|   -5.165931|   -5.255362|  -12.790651|    1.427462|
|         427|  7.0291e+00|   -5.041854|   -5.242061|   -5.909009|   -5.166298|   -5.255919|  -12.791235|    1.427702|
|         428|  7.0287e+00|   -5.042386|   -5.242284|   -5.908923|   -5.166687|   -5.256604|  -12.791885|    1.427931|
|         429|  7.0280e+00|   -5.042949|   -5.242523|   -5.908746|   -5.167088|   -5.257345|  -12.792524|    1.428145|
|         430|  7.0274e+00|   -5.043489|   -5.242776|   -5.908471|   -5.167492|   -5.258063|  -12.793081|    1.428338|
|         431|  7.0270e+00|   -5.043957|   -5.243041|   -5.908100|   -5.167889|   -5.258680|  -12.793503|    1.428505|
|         432|  7.0265e+00|   -5.044318|   -5.243312|   -5.907658|   -5.168271|   -5.259140|  -12.793761|    1.428642|
|         433|  7.0260e+00|   -5.044555|   -5.243585|   -5.907179|   -5.168635|   -5.259411|  -12.793858|    1.428747|
|         434|  7.0251e+00|   -5.044670|   -5.243851|   -5.906702|   -5.168982|   -5.259493|  -12.793815|    1.428817|
|         435|  7.0248e+00|   -5.044687|   -5.244105|   -5.906270|   -5.169314|   -5.259416|  -12.793666|    1.428851|
|         436|  7.0243e+00|   -5.044642|   -5.244342|   -5.905920|   -5.169637|   -5.259235|  -12.793452|    1.428848|
|         437|  7.0237e+00|   -5.044582|   -5.244560|   -5.905675|   -5.169959|   -5.259016|  -12.793252|    1.428808|
|         438|  7.0230e+00|   -5.044557|   -5.244757|   -5.905544|   -5.170288|   -5.258839|  -12.793137|    1.428732|
|         439|  7.0225e+00|   -5.044613|   -5.244937|   -5.905514|   -5.170630|   -5.258775|  -12.793151|    1.428624|
|         440|  7.0220e+00|   -5.044781|   -5.245107|   -5.905562|   -5.170992|   -5.258878|  -12.793314|    1.428484|
|         441|  7.0219e+00|   -5.045075|   -5.245274|   -5.905649|   -5.171373|   -5.259172|  -12.793643|    1.428317|
|         442|  7.0212e+00|   -5.045490|   -5.245451|   -5.905732|   -5.171773|   -5.259656|  -12.794131|    1.428127|
|         443|  7.0207e+00|   -5.046002|   -5.245646|   -5.905771|   -5.172186|   -5.260297|  -12.794722|    1.427918|
|         444|  7.0201e+00|   -5.046567|   -5.245865|   -5.905732|   -5.172601|   -5.261033|  -12.795348|    1.427695|
|         445|  7.0195e+00|   -5.047134|   -5.246110|   -5.905596|   -5.173010|   -5.261787|  -12.795934|    1.427463|
|         446|  7.0189e+00|   -5.047651|   -5.246378|   -5.905357|   -5.173402|   -5.262477|  -12.796417|    1.427227|
|         447|  7.0188e+00|   -5.048072|   -5.246668|   -5.905028|   -5.173770|   -5.263035|  -12.796757|    1.426993|
|         448|  7.0188e+00|   -5.048370|   -5.246971|   -5.904636|   -5.174110|   -5.263413|  -12.796937|    1.426765|
|         449|  7.0183e+00|   -5.048536|   -5.247280|   -5.904218|   -5.174422|   -5.263592|  -12.796972|    1.426548|
|         450|  7.0179e+00|   -5.048581|   -5.247585|   -5.903817|   -5.174712|   -5.263584|  -12.796882|    1.426348|
+-----------------------------------------------------------------------+
|        File Writing Summary       |              Filename             |
+-----------------------------------------------------------------------+
|SU2 binary restart                 |restart_flow.dat                   |
|Paraview                           |flow.vtu                           |
|Paraview surface                   |surface_flow.vtu                   |
+-----------------------------------------------------------------------+
+--------------------------------------------------------------------------------------------------------------------+
|  Inner_Iter|   Time(sec)|    rms[Rho]|   rms[RhoU]|   rms[RhoV]|   rms[RhoW]|   rms[RhoE]|     rms[nu]|          CD|
+--------------------------------------------------------------------------------------------------------------------+
|         451|  7.0677e+00|   -5.048537|   -5.247876|   -5.903474|   -5.174987|   -5.263429|  -12.796704|    1.426167|
|         452|  7.0675e+00|   -5.048446|   -5.248146|   -5.903222|   -5.175258|   -5.263190|  -12.796484|    1.426009|
|         453|  7.0670e+00|   -5.048358|   -5.248391|   -5.903082|   -5.175537|   -5.262941|  -12.796304|    1.425878|
|         454|  7.0664e+00|   -5.048326|   -5.248607|   -5.903059|   -5.175837|   -5.262762|  -12.796233|    1.425775|
|         455|  7.0660e+00|   -5.048396|   -5.248801|   -5.903138|   -5.176167|   -5.262724|  -12.796307|    1.425701|
|         456|  7.0658e+00|   -5.048596|   -5.248980|   -5.903292|   -5.176534|   -5.262875|  -12.796549|    1.425658|
|         457|  7.0652e+00|   -5.048938|   -5.249155|   -5.903477|   -5.176939|   -5.263235|  -12.796977|    1.425646|
|         458|  7.0644e+00|   -5.049412|   -5.249341|   -5.903652|   -5.177381|   -5.263796|  -12.797563|    1.425664|
|         459|  7.0639e+00|   -5.049988|   -5.249549|   -5.903777|   -5.177853|   -5.264514|  -12.798246|    1.425710|
|         460|  7.0634e+00|   -5.050620|   -5.249789|   -5.903818|   -5.178342|   -5.265323|  -12.798951|    1.425783|
|         461|  7.0640e+00|   -5.051254|   -5.250064|   -5.903757|   -5.178837|   -5.266143|  -12.799604|    1.425880|
|         462|  7.0636e+00|   -5.051837|   -5.250376|   -5.903591|   -5.179323|   -5.266892|  -12.800146|    1.425998|
|         463|  7.0634e+00|   -5.052326|   -5.250722|   -5.903334|   -5.179790|   -5.267502|  -12.800536|    1.426133|
|         464|  7.0630e+00|   -5.052693|   -5.251097|   -5.903013|   -5.180231|   -5.267930|  -12.800766|    1.426282|
|         465|  7.0629e+00|   -5.052931|   -5.251491|   -5.902666|   -5.180642|   -5.268161|  -12.800847|    1.426440|
|         466|  7.0626e+00|   -5.053053|   -5.251893|   -5.902335|   -5.181023|   -5.268210|  -12.800805|    1.426602|
|         467|  7.0625e+00|   -5.053087|   -5.252292|   -5.902060|   -5.181380|   -5.268118|  -12.800676|    1.426766|
|         468|  7.0619e+00|   -5.053075|   -5.252679|   -5.901876|   -5.181719|   -5.267948|  -12.800511|    1.426926|
|         469|  7.0615e+00|   -5.053067|   -5.253044|   -5.901805|   -5.182052|   -5.267773|  -12.800394|    1.427079|
|         470|  7.0609e+00|   -5.053111|   -5.253384|   -5.901851|   -5.182388|   -5.267673|  -12.800389|    1.427220|
|         471|  7.0607e+00|   -5.053250|   -5.253698|   -5.902001|   -5.182737|   -5.267713|  -12.800528|    1.427346|
|         472|  7.0604e+00|   -5.053509|   -5.253992|   -5.902229|   -5.183107|   -5.267937|  -12.800830|    1.427454|
|         473|  7.0600e+00|   -5.053895|   -5.254272|   -5.902495|   -5.183502|   -5.268359|  -12.801310|    1.427542|
|         474|  7.0592e+00|   -5.054398|   -5.254550|   -5.902758|   -5.183923|   -5.268965|  -12.801929|    1.427607|
|         475|  7.0586e+00|   -5.054986|   -5.254834|   -5.902982|   -5.184367|   -5.269710|  -12.802626|    1.427647|
|         476|  7.0583e+00|   -5.055616|   -5.255131|   -5.903135|   -5.184830|   -5.270527|  -12.803329|    1.427663|
|         477|  7.0580e+00|   -5.056238|   -5.255447|   -5.903204|   -5.185303|   -5.271338|  -12.803970|    1.427653|
|         478|  7.0575e+00|   -5.056804|   -5.255782|   -5.903183|   -5.185779|   -5.272069|  -12.804500|    1.427619|
|         479|  7.0568e+00|   -5.057280|   -5.256137|   -5.903087|   -5.186253|   -5.272661|  -12.804886|    1.427560|
|         480|  7.0563e+00|   -5.057647|   -5.256510|   -5.902941|   -5.186721|   -5.273080|  -12.805126|    1.427479|
|         481|  7.0560e+00|   -5.057902|   -5.256895|   -5.902777|   -5.187183|   -5.273317|  -12.805232|    1.427377|
|         482|  7.0553e+00|   -5.058062|   -5.257286|   -5.902631|   -5.187638|   -5.273394|  -12.805229|    1.427257|
|         483|  7.0548e+00|   -5.058159|   -5.257675|   -5.902538|   -5.188089|   -5.273356|  -12.805148|    1.427122|
|         484|  7.0541e+00|   -5.058232|   -5.258056|   -5.902525|   -5.188542|   -5.273263|  -12.805036|    1.426974|
|         485|  7.0536e+00|   -5.058326|   -5.258424|   -5.902603|   -5.188999|   -5.273187|  -12.804969|    1.426817|
|         486|  7.0530e+00|   -5.058488|   -5.258776|   -5.902774|   -5.189465|   -5.273200|  -12.805003|    1.426655|
|         487|  7.0524e+00|   -5.058749|   -5.259114|   -5.903020|   -5.189941|   -5.273362|  -12.805165|    1.426491|
|         488|  7.0518e+00|   -5.059130|   -5.259443|   -5.903308|   -5.190427|   -5.273708|  -12.805472|    1.426329|
|         489|  7.0512e+00|   -5.059628|   -5.259771|   -5.903600|   -5.190918|   -5.274243|  -12.805936|    1.426172|
|         490|  7.0506e+00|   -5.060225|   -5.260108|   -5.903854|   -5.191409|   -5.274947|  -12.806516|    1.426023|
|         491|  7.0500e+00|   -5.060882|   -5.260462|   -5.904036|   -5.191891|   -5.275764|  -12.807154|    1.425886|
|         492|  7.0496e+00|   -5.061551|   -5.260838|   -5.904122|   -5.192354|   -5.276624|  -12.807779|    1.425763|
|         493|  7.0489e+00|   -5.062178|   -5.261238|   -5.904107|   -5.192791|   -5.277444|  -12.808326|    1.425655|
|         494|  7.0482e+00|   -5.062716|   -5.261663|   -5.903993|   -5.193194|   -5.278149|  -12.808750|    1.425566|
|         495|  7.0476e+00|   -5.063130|   -5.262109|   -5.903806|   -5.193563|   -5.278682|  -12.809024|    1.425497|
|         496|  7.0470e+00|   -5.063405|   -5.262572|   -5.903580|   -5.193900|   -5.279010|  -12.809150|    1.425448|
|         497|  7.0466e+00|   -5.063547|   -5.263042|   -5.903357|   -5.194212|   -5.279133|  -12.809147|    1.425419|
|         498|  7.0462e+00|   -5.063579|   -5.263510|   -5.903183|   -5.194512|   -5.279079|  -12.809049|    1.425412|
|         499|  7.0455e+00|   -5.063542|   -5.263966|   -5.903098|   -5.194812|   -5.278902|  -12.808901|    1.425425|
|         500|  7.0451e+00|   -5.063490|   -5.264404|   -5.903138|   -5.195128|   -5.278675|  -12.808752|    1.425456|
|         501|  7.0445e+00|   -5.063476|   -5.264818|   -5.903321|   -5.195474|   -5.278480|  -12.808686|    1.425505|
|         502|  7.0439e+00|   -5.063556|   -5.265205|   -5.903651|   -5.195864|   -5.278401|  -12.808772|    1.425570|
|         503|  7.0436e+00|   -5.063775|   -5.265569|   -5.904109|   -5.196307|   -5.278508|  -12.809043|    1.425649|
|         504|  7.0431e+00|   -5.064158|   -5.265916|   -5.904661|   -5.196808|   -5.278846|  -12.809514|    1.425738|
|         505|  7.0426e+00|   -5.064710|   -5.266257|   -5.905258|   -5.197365|   -5.279429|  -12.810186|    1.425835|
|         506|  7.0423e+00|   -5.065414|   -5.266603|   -5.905846|   -5.197974|   -5.280234|  -12.811010|    1.425938|
|         507|  7.0416e+00|   -5.066230|   -5.266964|   -5.906375|   -5.198622|   -5.281210|  -12.811915|    1.426043|
|         508|  7.0411e+00|   -5.067105|   -5.267346|   -5.906802|   -5.199297|   -5.282278|  -12.812813|    1.426147|
|         509|  7.0405e+00|   -5.067977|   -5.267754|   -5.907100|   -5.199980|   -5.283349|  -12.813626|    1.426248|
|         510|  7.0401e+00|   -5.068787|   -5.268190|   -5.907257|   -5.200655|   -5.284334|  -12.814290|    1.426342|
|         511|  7.0396e+00|   -5.069487|   -5.268651|   -5.907279|   -5.201306|   -5.285160|  -12.814772|    1.426426|
|         512|  7.0392e+00|   -5.070044|   -5.269135|   -5.907190|   -5.201922|   -5.285777|  -12.815059|    1.426500|
|         513|  7.0387e+00|   -5.070447|   -5.269635|   -5.907023|   -5.202495|   -5.286166|  -12.815165|    1.426560|
|         514|  7.0383e+00|   -5.070704|   -5.270142|   -5.906822|   -5.203021|   -5.286336|  -12.815114|    1.426604|
|         515|  7.0383e+00|   -5.070842|   -5.270648|   -5.906630|   -5.203501|   -5.286327|  -12.814944|    1.426632|
|         516|  7.0380e+00|   -5.070900|   -5.271145|   -5.906488|   -5.203940|   -5.286198|  -12.814703|    1.426642|
|         517|  7.0376e+00|   -5.070929|   -5.271626|   -5.906429|   -5.204344|   -5.286022|  -12.814455|    1.426634|
|         518|  7.0370e+00|   -5.070979|   -5.272087|   -5.906472|   -5.204723|   -5.285881|  -12.814287|    1.426607|
|         519|  7.0367e+00|   -5.071100|   -5.272526|   -5.906621|   -5.205087|   -5.285851|  -12.814245|    1.426563|
|         520|  7.0368e+00|   -5.071326|   -5.272947|   -5.906860|   -5.205445|   -5.285989|  -12.814361|    1.426502|
|         521|  7.0366e+00|   -5.071676|   -5.273355|   -5.907164|   -5.205806|   -5.286324|  -12.814659|    1.426424|
|         522|  7.0363e+00|   -5.072149|   -5.273760|   -5.907497|   -5.206174|   -5.286858|  -12.815131|    1.426332|
|         523|  7.0359e+00|   -5.072724|   -5.274171|   -5.907825|   -5.206553|   -5.287559|  -12.815734|    1.426227|
|         524|  7.0355e+00|   -5.073364|   -5.274596|   -5.908118|   -5.206941|   -5.288373|  -12.816407|    1.426112|
|         525|  7.0356e+00|   -5.074023|   -5.275038|   -5.908356|   -5.207337|   -5.289226|  -12.817081|    1.425988|
|         526|  7.0351e+00|   -5.074652|   -5.275500|   -5.908529|   -5.207738|   -5.290043|  -12.817693|    1.425858|
|         527|  7.0347e+00|   -5.075210|   -5.275980|   -5.908641|   -5.208140|   -5.290755|  -12.818198|    1.425725|
|         528|  7.0345e+00|   -5.075667|   -5.276477|   -5.908704|   -5.208543|   -5.291312|  -12.818573|    1.425590|
|         529|  7.0341e+00|   -5.076011|   -5.276982|   -5.908745|   -5.208950|   -5.291689|  -12.818812|    1.425458|
|         530|  7.0337e+00|   -5.076249|   -5.277489|   -5.908793|   -5.209364|   -5.291887|  -12.818929|    1.425330|
|         531|  7.0334e+00|   -5.076402|   -5.277988|   -5.908878|   -5.209791|   -5.291935|  -12.818943|    1.425208|
|         532|  7.0331e+00|   -5.076507|   -5.278470|   -5.909030|   -5.210236|   -5.291881|  -12.818889|    1.425095|
|         533|  7.0326e+00|   -5.076607|   -5.278929|   -5.909270|   -5.210706|   -5.291790|  -12.818809|    1.424992|
|         534|  7.0320e+00|   -5.076749|   -5.279360|   -5.909613|   -5.211205|   -5.291736|  -12.818786|    1.424902|
|         535|  7.0315e+00|   -5.076979|   -5.279766|   -5.910058|   -5.211736|   -5.291794|  -12.818887|    1.424826|
|         536|  7.0312e+00|   -5.077333|   -5.280150|   -5.910586|   -5.212299|   -5.292027|  -12.819147|    1.424764|
|         537|  7.0308e+00|   -5.077829|   -5.280522|   -5.911167|   -5.212891|   -5.292469|  -12.819591|    1.424717|
|         538|  7.0303e+00|   -5.078466|   -5.280893|   -5.911758|   -5.213505|   -5.293130|  -12.820203|    1.424686|
[...]
|        6990|  9.0500e+00|   -5.532959|   -5.770354|   -6.272656|   -5.626379|   -5.764998|   -7.976420|    1.081011|
|        6991|  9.0496e+00|   -5.534176|   -5.771737|   -6.273203|   -5.627582|   -5.766139|   -7.976682|    1.080998|
|        6992|  9.0492e+00|   -5.535386|   -5.773111|   -6.273745|   -5.628783|   -5.767276|   -7.976947|    1.080986|
|        6993|  9.0488e+00|   -5.536589|   -5.774477|   -6.274282|   -5.629980|   -5.768410|   -7.977217|    1.080973|
|        6994|  9.0484e+00|   -5.537783|   -5.775835|   -6.274814|   -5.631173|   -5.769540|   -7.977491|    1.080961|
|        6995|  9.0480e+00|   -5.538970|   -5.777183|   -6.275340|   -5.632364|   -5.770666|   -7.977769|    1.080948|
|        6996|  9.0477e+00|   -5.540149|   -5.778522|   -6.275860|   -5.633550|   -5.771789|   -7.978051|    1.080936|
|        6997|  9.0472e+00|   -5.541319|   -5.779851|   -6.276375|   -5.634733|   -5.772907|   -7.978338|    1.080924|
|        6998|  9.0469e+00|   -5.542480|   -5.781171|   -6.276885|   -5.635912|   -5.774021|   -7.978629|    1.080912|
|        6999|  9.0465e+00|   -5.543633|   -5.782481|   -6.277389|   -5.637087|   -5.775131|   -7.978924|    1.080900|
|        7000|  9.0461e+00|   -5.544779|   -5.783782|   -6.277888|   -5.638260|   -5.776238|   -7.979223|    1.080888|
|        7001|  9.0457e+00|   -5.545916|   -5.785072|   -6.278381|   -5.639428|   -5.777341|   -7.979527|    1.080877|
|        7002|  9.0453e+00|   -5.547043|   -5.786352|   -6.278868|   -5.640590|   -5.778438|   -7.979835|    1.080865|
|        7003|  9.0449e+00|   -5.548159|   -5.787620|   -6.279350|   -5.641748|   -5.779529|   -7.980148|    1.080854|
|        7004|  9.0445e+00|   -5.549266|   -5.788876|   -6.279826|   -5.642900|   -5.780616|   -7.980465|    1.080843|
|        7005|  9.0441e+00|   -5.550361|   -5.790121|   -6.280295|   -5.644047|   -5.781696|   -7.980786|    1.080832|
|        7006|  9.0437e+00|   -5.551446|   -5.791354|   -6.280759|   -5.645188|   -5.782772|   -7.981112|    1.080821|
|        7007|  9.0433e+00|   -5.552521|   -5.792574|   -6.281216|   -5.646323|   -5.783841|   -7.981442|    1.080810|
|        7008|  9.0429e+00|   -5.553583|   -5.793782|   -6.281667|   -5.647453|   -5.784904|   -7.981776|    1.080799|
|        7009|  9.0426e+00|   -5.554635|   -5.794977|   -6.282112|   -5.648576|   -5.785962|   -7.982115|    1.080788|
|        7010|  9.0422e+00|   -5.555675|   -5.796159|   -6.282551|   -5.649693|   -5.787013|   -7.982459|    1.080778|
|        7011|  9.0418e+00|   -5.556704|   -5.797328|   -6.282984|   -5.650804|   -5.788059|   -7.982807|    1.080767|
|        7012|  9.0414e+00|   -5.557720|   -5.798483|   -6.283410|   -5.651908|   -5.789097|   -7.983159|    1.080757|
|        7013|  9.0410e+00|   -5.558724|   -5.799624|   -6.283830|   -5.653006|   -5.790130|   -7.983516|    1.080747|
|        7014|  9.0406e+00|   -5.559716|   -5.800751|   -6.284243|   -5.654097|   -5.791156|   -7.983877|    1.080737|
|        7015|  9.0402e+00|   -5.560696|   -5.801864|   -6.284650|   -5.655181|   -5.792175|   -7.984242|    1.080727|
|        7016|  9.0399e+00|   -5.561662|   -5.802962|   -6.285051|   -5.656258|   -5.793187|   -7.984613|    1.080717|
|        7017|  9.0395e+00|   -5.562616|   -5.804045|   -6.285445|   -5.657327|   -5.794192|   -7.984987|    1.080707|
|        7018|  9.0391e+00|   -5.563556|   -5.805112|   -6.285832|   -5.658390|   -5.795190|   -7.985366|    1.080697|
|        7019|  9.0387e+00|   -5.564483|   -5.806164|   -6.286213|   -5.659444|   -5.796180|   -7.985750|    1.080688|
|        7020|  9.0383e+00|   -5.565396|   -5.807200|   -6.286588|   -5.660490|   -5.797163|   -7.986138|    1.080679|
|        7021|  9.0379e+00|   -5.566295|   -5.808221|   -6.286955|   -5.661529|   -5.798138|   -7.986531|    1.080669|
|        7022|  9.0375e+00|   -5.567180|   -5.809225|   -6.287316|   -5.662559|   -5.799106|   -7.986928|    1.080660|
|        7023|  9.0371e+00|   -5.568051|   -5.810213|   -6.287669|   -5.663581|   -5.800065|   -7.987330|    1.080651|
|        7024|  9.0367e+00|   -5.568907|   -5.811184|   -6.288015|   -5.664595|   -5.801017|   -7.987736|    1.080642|
|        7025|  9.0364e+00|   -5.569748|   -5.812137|   -6.288355|   -5.665600|   -5.801960|   -7.988147|    1.080634|
|        7026|  9.0360e+00|   -5.570574|   -5.813073|   -6.288689|   -5.666596|   -5.802895|   -7.988562|    1.080625|
|        7027|  9.0356e+00|   -5.571386|   -5.813992|   -6.289015|   -5.667583|   -5.803821|   -7.988982|    1.080617|
|        7028|  9.0352e+00|   -5.572182|   -5.814892|   -6.289335|   -5.668561|   -5.804739|   -7.989406|    1.080608|
|        7029|  9.0348e+00|   -5.572963|   -5.815775|   -6.289649|   -5.669529|   -5.805648|   -7.989835|    1.080600|
|        7030|  9.0344e+00|   -5.573728|   -5.816639|   -6.289955|   -5.670488|   -5.806548|   -7.990269|    1.080592|
|        7031|  9.0340e+00|   -5.574478|   -5.817484|   -6.290255|   -5.671438|   -5.807439|   -7.990707|    1.080584|
|        7032|  9.0336e+00|   -5.575211|   -5.818310|   -6.290548|   -5.672377|   -5.808321|   -7.991149|    1.080576|
|        7033|  9.0332e+00|   -5.575928|   -5.819117|   -6.290834|   -5.673307|   -5.809193|   -7.991597|    1.080568|
|        7034|  9.0328e+00|   -5.576629|   -5.819904|   -6.291114|   -5.674226|   -5.810055|   -7.992049|    1.080560|
|        7035|  9.0324e+00|   -5.577314|   -5.820672|   -6.291387|   -5.675134|   -5.810908|   -7.992505|    1.080553|
|        7036|  9.0320e+00|   -5.577981|   -5.821420|   -6.291654|   -5.676032|   -5.811751|   -7.992966|    1.080545|
|        7037|  9.0316e+00|   -5.578632|   -5.822147|   -6.291913|   -5.676919|   -5.812584|   -7.993432|    1.080538|
|        7038|  9.0313e+00|   -5.579265|   -5.822854|   -6.292166|   -5.677795|   -5.813406|   -7.993902|    1.080531|
|        7039|  9.0309e+00|   -5.579880|   -5.823540|   -6.292411|   -5.678659|   -5.814217|   -7.994376|    1.080524|
|        7040|  9.0305e+00|   -5.580478|   -5.824204|   -6.292649|   -5.679512|   -5.815017|   -7.994856|    1.080517|
|        7041|  9.0301e+00|   -5.581058|   -5.824848|   -6.292880|   -5.680352|   -5.815807|   -7.995339|    1.080510|
|        7042|  9.0297e+00|   -5.581619|   -5.825470|   -6.293103|   -5.681181|   -5.816585|   -7.995828|    1.080503|
|        7043|  9.0293e+00|   -5.582163|   -5.826070|   -6.293319|   -5.681997|   -5.817352|   -7.996321|    1.080496|
|        7044|  9.0289e+00|   -5.582689|   -5.826649|   -6.293529|   -5.682801|   -5.818108|   -7.996818|    1.080490|
|        7045|  9.0285e+00|   -5.583196|   -5.827206|   -6.293731|   -5.683593|   -5.818852|   -7.997320|    1.080484|
|        7046|  9.0281e+00|   -5.583684|   -5.827741|   -6.293926|   -5.684372|   -5.819584|   -7.997826|    1.080477|
|        7047|  9.0277e+00|   -5.584154|   -5.828254|   -6.294114|   -5.685137|   -5.820305|   -7.998337|    1.080471|
|        7048|  9.0273e+00|   -5.584605|   -5.828744|   -6.294294|   -5.685890|   -5.821013|   -7.998853|    1.080465|
|        7049|  9.0269e+00|   -5.585037|   -5.829212|   -6.294467|   -5.686629|   -5.821709|   -7.999373|    1.080459|
|        7050|  9.0265e+00|   -5.585450|   -5.829657|   -6.294633|   -5.687355|   -5.822392|   -7.999898|    1.080453|
+-----------------------------------------------------------------------+
|        File Writing Summary       |              Filename             |
+-----------------------------------------------------------------------+
|SU2 binary restart                 |restart_flow.dat                   |
|Paraview                           |flow.vtu                           |
|Paraview surface                   |surface_flow.vtu                   |
+-----------------------------------------------------------------------+
+--------------------------------------------------------------------------------------------------------------------+
|  Inner_Iter|   Time(sec)|    rms[Rho]|   rms[RhoU]|   rms[RhoV]|   rms[RhoW]|   rms[RhoE]|     rms[nu]|          CD|
+--------------------------------------------------------------------------------------------------------------------+
|        7051|  9.0293e+00|   -5.585842|   -5.830079|   -6.294790|   -5.688065|   -5.823062|   -8.000427|    1.080448|
|        7052|  9.0290e+00|   -5.586215|   -5.830478|   -6.294940|   -5.688762|   -5.823719|   -8.000960|    1.080442|
|        7053|  9.0286e+00|   -5.586569|   -5.830854|   -6.295083|   -5.689445|   -5.824363|   -8.001498|    1.080437|
|        7054|  9.0282e+00|   -5.586903|   -5.831207|   -6.295219|   -5.690113|   -5.824994|   -8.002041|    1.080431|
|        7055|  9.0278e+00|   -5.587218|   -5.831536|   -6.295347|   -5.690767|   -5.825612|   -8.002588|    1.080426|
|        7056|  9.0274e+00|   -5.587514|   -5.831843|   -6.295468|   -5.691407|   -5.826217|   -8.003139|    1.080421|
|        7057|  9.0270e+00|   -5.587789|   -5.832127|   -6.295582|   -5.692032|   -5.826808|   -8.003695|    1.080416|
|        7058|  9.0266e+00|   -5.588045|   -5.832387|   -6.295689|   -5.692642|   -5.827386|   -8.004256|    1.080411|
|        7059|  9.0263e+00|   -5.588281|   -5.832623|   -6.295788|   -5.693238|   -5.827951|   -8.004820|    1.080407|
|        7060|  9.0259e+00|   -5.588497|   -5.832837|   -6.295880|   -5.693818|   -5.828502|   -8.005389|    1.080402|
|        7061|  9.0256e+00|   -5.588694|   -5.833026|   -6.295966|   -5.694383|   -5.829039|   -8.005963|    1.080397|
|        7062|  9.0254e+00|   -5.588871|   -5.833193|   -6.296046|   -5.694934|   -5.829562|   -8.006541|    1.080393|
|        7063|  9.0251e+00|   -5.589028|   -5.833336|   -6.296118|   -5.695468|   -5.830072|   -8.007123|    1.080389|
|        7064|  9.0248e+00|   -5.589165|   -5.833456|   -6.296183|   -5.695988|   -5.830567|   -8.007710|    1.080385|
|        7065|  9.0244e+00|   -5.589283|   -5.833552|   -6.296241|   -5.696491|   -5.831049|   -8.008301|    1.080381|
|        7066|  9.0241e+00|   -5.589381|   -5.833624|   -6.296292|   -5.696980|   -5.831516|   -8.008896|    1.080377|
|        7067|  9.0237e+00|   -5.589458|   -5.833673|   -6.296337|   -5.697452|   -5.831969|   -8.009496|    1.080373|
|        7068|  9.0234e+00|   -5.589517|   -5.833698|   -6.296374|   -5.697908|   -5.832407|   -8.010100|    1.080369|
|        7069|  9.0230e+00|   -5.589555|   -5.833700|   -6.296405|   -5.698349|   -5.832831|   -8.010708|    1.080366|
|        7070|  9.0226e+00|   -5.589574|   -5.833679|   -6.296429|   -5.698773|   -5.833241|   -8.011321|    1.080362|
|        7071|  9.0222e+00|   -5.589573|   -5.833634|   -6.296446|   -5.699182|   -5.833636|   -8.011937|    1.080359|
|        7072|  9.0218e+00|   -5.589553|   -5.833567|   -6.296456|   -5.699574|   -5.834016|   -8.012558|    1.080355|
|        7073|  9.0214e+00|   -5.589513|   -5.833476|   -6.296459|   -5.699949|   -5.834381|   -8.013183|    1.080352|
|        7074|  9.0210e+00|   -5.589453|   -5.833363|   -6.296455|   -5.700308|   -5.834732|   -8.013812|    1.080349|
|        7075|  9.0206e+00|   -5.589374|   -5.833226|   -6.296445|   -5.700650|   -5.835067|   -8.014446|    1.080346|
|        7076|  9.0202e+00|   -5.589275|   -5.833067|   -6.296427|   -5.700975|   -5.835388|   -8.015083|    1.080344|
|        7077|  9.0199e+00|   -5.589157|   -5.832886|   -6.296403|   -5.701283|   -5.835693|   -8.015725|    1.080341|
|        7078|  9.0195e+00|   -5.589020|   -5.832681|   -6.296372|   -5.701575|   -5.835983|   -8.016371|    1.080339|
|        7079|  9.0191e+00|   -5.588863|   -5.832455|   -6.296334|   -5.701849|   -5.836257|   -8.017020|    1.080336|
|        7080|  9.0187e+00|   -5.588687|   -5.832205|   -6.296289|   -5.702106|   -5.836517|   -8.017674|    1.080334|
|        7081|  9.0183e+00|   -5.588492|   -5.831934|   -6.296237|   -5.702347|   -5.836761|   -8.018332|    1.080332|
|        7082|  9.0179e+00|   -5.588278|   -5.831641|   -6.296179|   -5.702570|   -5.836989|   -8.018993|    1.080330|
|        7083|  9.0175e+00|   -5.588046|   -5.831326|   -6.296115|   -5.702776|   -5.837203|   -8.019659|    1.080328|
|        7084|  9.0171e+00|   -5.587795|   -5.830989|   -6.296044|   -5.702965|   -5.837401|   -8.020328|    1.080326|
|        7085|  9.0167e+00|   -5.587525|   -5.830631|   -6.295966|   -5.703137|   -5.837583|   -8.021002|    1.080324|
|        7086|  9.0164e+00|   -5.587237|   -5.830252|   -6.295882|   -5.703292|   -5.837750|   -8.021679|    1.080322|
|        7087|  9.0160e+00|   -5.586930|   -5.829852|   -6.295792|   -5.703429|   -5.837902|   -8.022360|    1.080321|
|        7088|  9.0156e+00|   -5.586606|   -5.829431|   -6.295695|   -5.703549|   -5.838038|   -8.023045|    1.080320|
|        7089|  9.0152e+00|   -5.586263|   -5.828990|   -6.295591|   -5.703651|   -5.838158|   -8.023734|    1.080318|
|        7090|  9.0148e+00|   -5.585903|   -5.828528|   -6.295482|   -5.703737|   -5.838263|   -8.024427|    1.080317|
|        7091|  9.0144e+00|   -5.585524|   -5.828045|   -6.295366|   -5.703805|   -5.838353|   -8.025123|    1.080316|
|        7092|  9.0140e+00|   -5.585129|   -5.827543|   -6.295244|   -5.703856|   -5.838427|   -8.025823|    1.080315|
|        7093|  9.0136e+00|   -5.584716|   -5.827022|   -6.295116|   -5.703890|   -5.838485|   -8.026527|    1.080314|
|        7094|  9.0132e+00|   -5.584286|   -5.826480|   -6.294982|   -5.703907|   -5.838529|   -8.027234|    1.080314|
|        7095|  9.0128e+00|   -5.583840|   -5.825920|   -6.294841|   -5.703907|   -5.838556|   -8.027945|    1.080313|
|        7096|  9.0124e+00|   -5.583376|   -5.825340|   -6.294695|   -5.703889|   -5.838569|   -8.028660|    1.080313|
|        7097|  9.0120e+00|   -5.582896|   -5.824742|   -6.294542|   -5.703855|   -5.838566|   -8.029378|    1.080312|
|        7098|  9.0116e+00|   -5.582399|   -5.824125|   -6.294384|   -5.703803|   -5.838548|   -8.030100|    1.080312|
|        7099|  9.0112e+00|   -5.581887|   -5.823490|   -6.294220|   -5.703735|   -5.838515|   -8.030826|    1.080312|
|        7100|  9.0108e+00|   -5.581359|   -5.822837|   -6.294051|   -5.703651|   -5.838467|   -8.031555|    1.080312|
|        7101|  9.0104e+00|   -5.580816|   -5.822167|   -6.293877|   -5.703550|   -5.838404|   -8.032287|    1.080312|
|        7102|  9.0100e+00|   -5.580256|   -5.821479|   -6.293696|   -5.703432|   -5.838325|   -8.033023|    1.080312|
|        7103|  9.0097e+00|   -5.579682|   -5.820774|   -6.293510|   -5.703297|   -5.838232|   -8.033763|    1.080313|
|        7104|  9.0093e+00|   -5.579092|   -5.820052|   -6.293319|   -5.703146|   -5.838124|   -8.034505|    1.080313|
|        7105|  9.0089e+00|   -5.578488|   -5.819314|   -6.293122|   -5.702979|   -5.838001|   -8.035252|    1.080314|
|        7106|  9.0085e+00|   -5.577869|   -5.818559|   -6.292920|   -5.702796|   -5.837864|   -8.036001|    1.080315|
|        7107|  9.0082e+00|   -5.577236|   -5.817789|   -6.292712|   -5.702596|   -5.837711|   -8.036754|    1.080316|
|        7108|  9.0078e+00|   -5.576589|   -5.817002|   -6.292499|   -5.702380|   -5.837544|   -8.037510|    1.080316|
|        7109|  9.0074e+00|   -5.575927|   -5.816201|   -6.292280|   -5.702148|   -5.837363|   -8.038270|    1.080318|
|        7110|  9.0070e+00|   -5.575252|   -5.815384|   -6.292055|   -5.701899|   -5.837166|   -8.039033|    1.080319|
|        7111|  9.0066e+00|   -5.574562|   -5.814552|   -6.291826|   -5.701635|   -5.836955|   -8.039799|    1.080320|
|        7112|  9.0062e+00|   -5.573860|   -5.813706|   -6.291591|   -5.701355|   -5.836730|   -8.040568|    1.080322|
|        7113|  9.0058e+00|   -5.573144|   -5.812846|   -6.291351|   -5.701059|   -5.836490|   -8.041341|    1.080323|
|        7114|  9.0054e+00|   -5.572415|   -5.811971|   -6.291107|   -5.700747|   -5.836236|   -8.042117|    1.080325|
|        7115|  9.0051e+00|   -5.571674|   -5.811083|   -6.290858|   -5.700420|   -5.835969|   -8.042896|    1.080327|
|        7116|  9.0047e+00|   -5.570920|   -5.810182|   -6.290603|   -5.700078|   -5.835687|   -8.043678|    1.080328|
|        7117|  9.0043e+00|   -5.570155|   -5.809269|   -6.290344|   -5.699721|   -5.835392|   -8.044463|    1.080330|
|        7118|  9.0039e+00|   -5.569377|   -5.808343|   -6.290079|   -5.699349|   -5.835083|   -8.045251|    1.080333|
|        7119|  9.0035e+00|   -5.568588|   -5.807404|   -6.289810|   -5.698962|   -5.834761|   -8.046043|    1.080335|

scontrol show job 1178842
JobId=1178842 JobName=m6_aoa50
   UserId=anthonyy(3152141) GroupId=anthonyy(3152141) MCS_label=N/A
   Priority=532066 Nice=0 Account=rrg-jphickey QOS=normal
   JobState=COMPLETING Reason=TimeLimit Dependency=(null)
   Requeue=0 Restarts=0 BatchFlag=1 Reboot=0 ExitCode=0:15
   RunTime=18:00:22 TimeLimit=18:00:00 TimeMin=N/A
   SubmitTime=2026-03-15T02:51:58 EligibleTime=2026-03-15T02:51:58
   AccrueTime=2026-03-15T02:51:58
   StartTime=2026-03-15T03:51:51 EndTime=2026-03-15T21:52:13 Deadline=N/A
   SuspendTime=None SecsPreSuspend=0 LastSchedEval=2026-03-15T03:51:51 Scheduler=Main
   Partition=compute AllocNode:Sid=tri-login04:768438
   ReqNodeList=(null) ExcNodeList=(null)
   NodeList=tri[0342,0345]
   BatchHost=tri0342
   NumNodes=2 NumCPUs=384 NumTasks=128 CPUs/Task=1 ReqB:S:C:T=0:0:*:*
   ReqTRES=cpu=128,mem=1534000M,node=2,billing=128
   AllocTRES=cpu=384,mem=1534000M,node=2,billing=384
   Socks/Node=* NtasksPerN:B:S:C=64:0:*:* CoreSpec=*
   MinCPUsNode=64 MinMemoryNode=767000M MinTmpDiskNode=0
   Features=(null) DelayBoot=00:00:00
   OverSubscribe=NO Contiguous=0 Licenses=(null) Network=(null)
   Command=/scratch/anthonyy/reentry/orion/config/run.sh
   WorkDir=/scratch/anthonyy/reentry/orion/cases/m6_aoa50
   Comment=/opt/slurm/bin/sbatch --export=NONE --get-user-env=L --job-name m6_aoa50 --nodes 2 --ntasks-per-node 64 --cpus-per-task 1 --mem 0 --time 18:00:00 --account rrg-jphickey --output orion_%j.out --error orion_%j.err --chdir /scratch/anthonyy/reentry/orion/cases/m6_aoa50 /scratch/anthonyy/reentry/orion/config/run.sh /scratch/anthonyy/reentry/orion/config/generated/m6_aoa50.cfg 
   StdErr=/scratch/anthonyy/reentry/orion/cases/m6_aoa50/orion_1178842.err
   StdIn=/dev/null
   StdOut=/scratch/anthonyy/reentry/orion/cases/m6_aoa50/orion_1178842.out
   TresPerTask=cpu=1
   

sacct -j 1178842
JobID           JobName    Account    Elapsed  MaxVMSize     MaxRSS  SystemCPU    UserCPU ExitCode 
------------ ---------- ---------- ---------- ---------- ---------- ---------- ---------- -------- 
1178842        m6_aoa50 rrg-jphic+   18:00:22                         10:50:28 81-20:56:+      0:0 
1178842.bat+      batch rrg-jphic+   18:00:23          0      8748K  00:00.144  00:00.576     0:15 
1178842.ext+     extern rrg-jphic+   18:00:27          0          0   00:00:00  00:00.001      0:0 
1178842.0       SU2_CFD rrg-jphic+   18:00:21          0  10670008K   10:50:28 81-20:56:+     0:15 


kernel messages produced during job executions:
[Mar15 08:21] lockd: server 172.30.214.1 not responding, still trying
[  +0.000000] lockd: server 172.30.214.1 not responding, still trying
[  -0.000001] lockd: server 172.30.214.1 not responding, still trying
[  +0.000000] lockd: server 172.30.214.1 not responding, still trying
[  +0.000005] lockd: server 172.30.214.1 not responding, still trying
[  +0.000000] lockd: server 172.30.214.1 not responding, still trying
[  +0.000002] lockd: server 172.30.214.1 not responding, still trying
[  +0.000000] lockd: server 172.30.214.1 not responding, still trying
[  +0.000002] lockd: server 172.30.214.1 not responding, still trying
[  +0.000000] lockd: server 172.30.214.1 not responding, still trying
[Mar15 13:11] lockd: server 172.30.214.1 OK
[  +0.000174] lockd: server 172.30.214.1 OK
[  +0.000108] lockd: server 172.30.214.1 OK
[  +0.000167] lockd: server 172.30.214.1 OK
[  +0.000137] lockd: server 172.30.214.1 OK
[  +0.000026] lockd: server 172.30.214.1 OK
[  +0.000030] lockd: server 172.30.214.1 OK
[  +0.000009] lockd: server 172.30.214.1 OK
[  +0.000522] lockd: server 172.30.214.1 OK
[  +0.000073] lockd: server 172.30.214.1 OK

