Nodes:  tri[0939,1024]
Tasks:  128
NPN:    64
Config: /scratch/anthonyy/reentry/orion/config/generated/m3_aoa32.cfg

-------------------------------------------------------------------------
|    ___ _   _ ___                                                      |
|   / __| | | |_  )   Release 7.5.1 "Blackbird"                         |
|   \__ \ |_| |/ /                                                      |
|   |___/\___//___|   Suite (Computational Fluid Dynamics Code)         |
|                                                                       |
-------------------------------------------------------------------------
| SU2 Project Website: https://su2code.github.io                        |
|                                                                       |
| The SU2 Project is maintained by the SU2 Foundation                   |
| (http://su2foundation.org)                                            |
-------------------------------------------------------------------------
| Copyright 2012-2023, SU2 Contributors                                 |
|                                                                       |
| SU2 is free software; you can redistribute it and/or                  |
| modify it under the terms of the GNU Lesser General Public            |
| License as published by the Free Software Foundation; either          |
| version 2.1 of the License, or (at your option) any later version.    |
|                                                                       |
| SU2 is distributed in the hope that it will be useful,                |
| but WITHOUT ANY WARRANTY; without even the implied warranty of        |
| MERCHANTABILITY or FITNESS FOR A PARTICULAR PURPOSE. See the GNU      |
| Lesser General Public License for more details.                       |
|                                                                       |
| You should have received a copy of the GNU Lesser General Public      |
| License along with SU2. If not, see <http://www.gnu.org/licenses/>.   |
-------------------------------------------------------------------------

Parsing config file for zone 0

----------------- Physical Case Definition ( Zone 0 ) -------------------
Compressible RANS equations.
Turbulence model: Spalart-Allmaras-noft2
Hybrid RANS/LES: No Hybrid RANS/LES
Mach number: 3.
Angle of attack (AoA): 32 deg, and angle of sideslip (AoS): 0 deg.
Reynolds number: 3.43114e+08. Reference length 5.
No restart solution, use the values at infinity (freestream).
Non-Dimensional simulation (V=1.0, Rho=1.0, T=1.0 at the farfield).
The reference area will be computed using y(2D) or z(3D) projection.
The semi-span will be computed using the max y(3D) value.
The reference length is 0.64607 m.
Reference origin for moment evaluation is (0.25, 0, 0).
Surface(s) where the force coefficients are evaluated: ORION_SURFACE.

Input mesh file name: ../../mesh/fine.su2

--------------- Space Numerical Integration ( Zone 0 ) ------------------
Jameson-Schmidt-Turkel scheme (2nd order in space) for the flow inviscid terms.
JST viscous coefficients (2nd & 4th): 0.5, 0.02.
The method includes a grid stretching correction (p = 0.3).
Scalar upwind solver for the turbulence model.
First order integration in space.
Average of gradients with correction (viscous flow terms).
Average of gradients with correction (viscous turbulence terms).
Gradient for upwind reconstruction: Green-Gauss.
Gradient for viscous and source terms: Green-Gauss.

--------------- Time Numerical Integration  ( Zone 0 ) ------------------
Local time stepping (steady state simulation).
Euler implicit method for the flow equations.
FGMRES is used for solving the linear system.
Using a ILU(0) preconditioning.
Convergence criteria of the linear solver: 1e-06.
Max number of linear iterations: 100.
CFL adaptation. Factor down: 0.5, factor up: 1.2,
                lower limit: 0.1, upper limit: 3,
                acceptable linear residual: 0.001.
Courant-Friedrichs-Lewy number:        1
Euler implicit time integration for the turbulence model.

------------------ Convergence Criteria  ( Zone 0 ) ---------------------
Maximum number of solver subiterations: 999999.
Begin convergence monitoring at iteration 5.
Residual minimum value: 1e-8.
Cauchy series min. value: 1e-10.
Number of Cauchy elements: 100.
Begin windowed time average at iteration 0.

-------------------- Output Information ( Zone 0 ) ----------------------
File writing frequency: 
+------------------------------------+
|                     File| Frequency|
+------------------------------------+
|                  RESTART|       150|
|                 PARAVIEW|       150|
|         SURFACE_PARAVIEW|       150|
+------------------------------------+
Writing the convergence history file every 1 inner iterations.
Writing the screen convergence history every 1 inner iterations.
The tabular file format is CSV (.csv).
Convergence history file name: history.
Forces breakdown file name: forces_breakdown.dat.
Surface file name: surface_flow.
Volume file name: flow.
Restart file name: restart_flow.

------------- Config File Boundary Information ( Zone 0 ) ---------------
+-----------------------------------------------------------------------+
|                        Marker Type|                        Marker Name|
+-----------------------------------------------------------------------+
|                          Far-field|                           FARFIELD|
+-----------------------------------------------------------------------+
|                     Heat flux wall|                      ORION_SURFACE|
+-----------------------------------------------------------------------+

-------------------- Output Preprocessing ( Zone 0 ) --------------------

WARNING: SURFACE_PRESSURE_DROP can only be computed for at least 2 surfaces (outlet, inlet, ...)

Screen output fields: INNER_ITER, WALL_TIME, RMS_DENSITY, RMS_MOMENTUM-X, RMS_MOMENTUM-Y, RMS_MOMENTUM-Z, RMS_ENERGY, RMS_NU_TILDE, DRAG
History output group(s): ITER, RMS_RES
Convergence field(s): RMS_DENSITY
Warning: No (valid) fields chosen for time convergence monitoring. Time convergence monitoring inactive.
Volume output fields: MACH, PRESSURE, TEMPERATURE, DENSITY, HEAT_FLUX, Y_PLUS, COORDINATES, SOLUTION

------------------- Geometry Preprocessing ( Zone 0 ) -------------------
Three dimensional problem.
62211324 grid points before partitioning.
190879888 volume elements before partitioning.
2 surface markers.
4104 boundary elements in index 0 (Marker = FARFIELD).
1824836 boundary elements in index 1 (Marker = ORION_SURFACE).
Executing the partitioning functions.
Building the graph adjacency structure.
Calling ParMETIS... graph partitioning complete (4959327 edge cuts).
Distributing ParMETIS coloring.
Rebalancing vertices.
Rebalancing volume element connectivity.
Rebalancing markers and surface elements.
66952290 vertices including ghost points. 
197997438 interior elements including halo cells. 
103171259 tetrahedra.
94500655 prisms.
325524 pyramids.
Establishing MPI communication patterns.
Setting point connectivity.
Renumbering points (Reverse Cuthill McKee Ordering).
Recomputing point connectivity.
Setting element connectivity.
Checking the numerical grid orientation.
All volume elements are correctly orientend.
All surface elements are correctly orientend.
Identifying edges and vertices.
Setting the control volume structure.
Volume of the computational grid: 535693.
Searching for the closest normal neighbors to the surfaces.
Storing a mapping from global to local point index.
Compute the surface curvature.
Max K: 132.896. Mean K: 3.9104. Standard deviation K: 7.49569.
Checking for periodicity.
Computing mesh quality statistics for the dual control volumes.
+--------------------------------------------------------------+
|           Mesh Quality Metric|        Minimum|        Maximum|
+--------------------------------------------------------------+
|    Orthogonality Angle (deg.)|        53.0661|             90|
|     CV Face Area Aspect Ratio|        1.01143|        75298.5|
|           CV Sub-Volume Ratio|        1.00029|        45.0258|
+--------------------------------------------------------------+
Finding max control volume width.
Communicating number of neighbors.
Reference area = 11.531 m^2.
Semi-span length = 2.49999 m.
Wetted area = 57.9072 m^2.
Area projection in the x-plane = 19.6343 m^2, y-plane = 11.531 m^2, z-plane = 11.531 m^2.
Max. coordinate in the x-direction = 2.575 m, y-direction = 2.49999 m, z-direction = 2.49999 m.
Min. coordinate in the x-direction = -0.71 m, y-direction = -2.49999 m, z-direction = -2.5 m.
Computing wall distances.

-------------------- Solver Preprocessing ( Zone 0 ) --------------------
Viscous flow: Computing pressure using the ideal gas law
based on the free-stream temperature and a density computed
from the Reynolds number.
Force coefficients computed using free-stream values.

-- Models:
+------------------------------------------------------------------------------+
|          Viscosity Model|        Conductivity Model|              Fluid Model|
+------------------------------------------------------------------------------+
|               SUTHERLAND|          CONSTANT_PRANDTL|             STANDARD_AIR|
+------------------------------------------------------------------------------+
-- Fluid properties:
+------------------------------------------------------------------------------+
|                  Name|    Dim. value|    Ref. value|      Unit|Non-dim. value|
+------------------------------------------------------------------------------+
|        Ref. Viscosity|     1.716e-05|       1227.87|   N.s/m^2|   1.39755e-08|
|      Sutherland Temp.|        273.15|        288.15|         K|      0.947944|
|     Sutherland Const.|         110.4|        288.15|         K|      0.383134|
+------------------------------------------------------------------------------+
|        Prandtl (Lam.)|             -|             -|         -|          0.72|
|       Prandtl (Turb.)|             -|             -|         -|           0.9|
+------------------------------------------------------------------------------+
|          Gas Constant|       287.058|       3616.93|  N.m/kg.K|     0.0793651|
|      Spec. Heat Ratio|             -|             -|         -|           1.4|
+------------------------------------------------------------------------------+
-- Initial and free-stream conditions:
+------------------------------------------------------------------------------+
|                  Name|    Dim. value|    Ref. value|      Unit|Non-dim. value|
+------------------------------------------------------------------------------+
|       Static Pressure|       99485.6|   1.25352e+06|        Pa|     0.0793651|
|               Density|       1.20274|       1.20274|    kg/m^3|             1|
|           Temperature|        288.15|        288.15|         K|             1|
|          Total Energy|        727899|   1.04222e+06|   m^2/s^2|      0.698413|
|            Velocity-X|       865.765|       1020.89|       m/s|      0.848048|
|            Velocity-Y|             0|       1020.89|       m/s|             0|
|            Velocity-Z|        540.99|       1020.89|       m/s|      0.529919|
|    Velocity Magnitude|       1020.89|       1020.89|       m/s|             1|
+------------------------------------------------------------------------------+
|             Viscosity|    1.7893e-05|       1227.87|   N.s/m^2|   1.45724e-08|
|          Conductivity|             -|   4.44111e+06|   W/m^2.K|             -|
|     Turb. Kin. Energy|       3908.32|   1.04222e+06|   m^2/s^2|       0.00375|
|     Spec. Dissipation|   2.62712e+07|       1020.89|       1/s|       25733.6|
+------------------------------------------------------------------------------+
|           Mach Number|             -|             -|         -|             3|
|       Reynolds Number|             -|             -|         -|   3.43114e+08|
+------------------------------------------------------------------------------+
Initialize Jacobian structure (Navier-Stokes). MG level: 0.
Initialize Jacobian structure (SA model).

------------------- Numerics Preprocessing ( Zone 0 ) -------------------

----------------- Integration Preprocessing ( Zone 0 ) ------------------

------------------- Iteration Preprocessing ( Zone 0 ) ------------------
Euler/Navier-Stokes/RANS fluid iteration.

------------------------------ Begin Solver -----------------------------

Simulation Run using the Single-zone Driver
WARNING: SU2 was not compiled for an AVX-capable architecture. Performance could be better,
         see https://su2code.github.io/docs_v7/Build-SU2-Linux-MacOS/#compiler-optimizations
+--------------------------------------------------------------------------------------------------------------------+
|  Inner_Iter|   Time(sec)|    rms[Rho]|   rms[RhoU]|   rms[RhoV]|   rms[RhoW]|   rms[RhoE]|     rms[nu]|          CD|
+--------------------------------------------------------------------------------------------------------------------+
|           0|  4.5388e+01|   -5.284118|  -16.014873|  -17.069986|  -16.220003|   -5.393263|  -12.801382|    0.719127|
|           1|  2.7779e+01|   -5.431592|   -5.532741|   -6.440491|   -5.690197|   -5.549549|  -12.768885|    1.006801|
|           2|  2.1476e+01|   -5.443878|   -5.609184|   -6.517666|   -5.736728|   -5.547357|  -12.977631|    1.305937|
|           3|  1.8555e+01|   -5.443650|   -5.664593|   -6.531124|   -5.765420|   -5.536750|  -13.087214|    1.623682|
|           4|  1.6838e+01|   -5.439326|   -5.721919|   -6.497014|   -5.795479|   -5.524305|  -13.164915|    1.974409|
|           5|  1.5824e+01|   -5.436693|   -5.789522|   -6.443376|   -5.831447|   -5.515274|  -13.221893|    2.363039|
|           6|  1.5209e+01|   -5.440089|   -5.861550|   -6.382496|   -5.868890|   -5.514311|  -13.258524|    2.779233|
|           7|  1.4829e+01|   -5.453420|   -5.903509|   -6.311382|   -5.895349|   -5.526001|  -13.272881|    3.190639|
|           8|  1.4543e+01|   -5.479949|   -5.877331|   -6.234968|   -5.899715|   -5.553708|  -13.264579|    3.557931|
|           9|  1.4330e+01|   -5.510928|   -5.813683|   -6.167131|   -5.885658|   -5.585134|  -13.245780|    3.799362|
|          10|  1.4212e+01|   -5.522700|   -5.755465|   -6.113561|   -5.847082|   -5.591862|  -13.223799|    3.833654|
|          11|  1.4097e+01|   -5.493562|   -5.719298|   -6.074936|   -5.793851|   -5.549186|  -13.206827|    3.615234|
|          12|  1.4026e+01|   -5.442788|   -5.716415|   -6.046572|   -5.743464|   -5.484058|  -13.190907|    3.196385|
|          13|  1.3960e+01|   -5.399638|   -5.746965|   -6.020269|   -5.709694|   -5.432031|  -13.180273|    2.700225|
|          14|  1.3925e+01|   -5.376292|   -5.788542|   -5.994568|   -5.699451|   -5.404867|  -13.168347|    2.263286|
|          15|  1.3827e+01|   -5.374706|   -5.799412|   -5.978305|   -5.709937|   -5.402683|  -13.145778|    1.967153|
|          16|  1.3735e+01|   -5.393178|   -5.777185|   -5.980168|   -5.734147|   -5.422776|  -13.117047|    1.835301|
|          17|  1.3702e+01|   -5.422947|   -5.760880|   -5.998046|   -5.758983|   -5.456424|  -13.091183|    1.868927|
|          18|  1.3675e+01|   -5.451082|   -5.764815|   -6.020829|   -5.774393|   -5.491015|  -13.077310|    2.014880|
|          19|  1.3641e+01|   -5.466602|   -5.784528|   -6.040262|   -5.782076|   -5.512343|  -13.075034|    2.206229|
|          20|  1.3613e+01|   -5.470555|   -5.814349|   -6.054478|   -5.786120|   -5.517139|  -13.072683|    2.388183|
|          21|  1.3587e+01|   -5.471061|   -5.841238|   -6.066293|   -5.791560|   -5.516104|  -13.063072|    2.527006|
|          22|  1.3563e+01|   -5.478815|   -5.860652|   -6.077219|   -5.795803|   -5.525140|  -13.049285|    2.609535|
|          23|  1.3549e+01|   -5.488941|   -5.874493|   -6.083324|   -5.796349|   -5.538055|  -13.034675|    2.638564|
|          24|  1.3539e+01|   -5.495530|   -5.880091|   -6.082468|   -5.794002|   -5.547946|  -13.018531|    2.631203|
|          25|  1.3523e+01|   -5.497490|   -5.873873|   -6.076184|   -5.789572|   -5.553144|  -13.006044|    2.612224|
|          26|  1.3509e+01|   -5.492846|   -5.859594|   -6.068172|   -5.784541|   -5.548646|  -12.997176|    2.603028|
|          27|  1.3502e+01|   -5.484369|   -5.852655|   -6.063618|   -5.781524|   -5.537234|  -12.990331|    2.612079|
|          28|  1.3490e+01|   -5.476057|   -5.854864|   -6.062996|   -5.780080|   -5.525729|  -12.982480|    2.635490|
|          29|  1.3474e+01|   -5.473066|   -5.863264|   -6.065013|   -5.779561|   -5.520998|  -12.973561|    2.663045|
|          30|  1.3465e+01|   -5.474348|   -5.871442|   -6.066131|   -5.778838|   -5.521900|  -12.963557|    2.684345|
|          31|  1.3454e+01|   -5.478396|   -5.872176|   -6.064895|   -5.777959|   -5.527369|  -12.950706|    2.693276|
|          32|  1.3444e+01|   -5.481448|   -5.863037|   -6.061072|   -5.775808|   -5.532920|  -12.939068|    2.689529|
|          33|  1.3439e+01|   -5.480395|   -5.847632|   -6.057431|   -5.773719|   -5.532849|  -12.929237|    2.677704|
|          34|  1.3431e+01|   -5.474885|   -5.839400|   -6.055747|   -5.771896|   -5.525421|  -12.925865|    2.664679|
|          35|  1.3396e+01|   -5.467952|   -5.841429|   -6.056810|   -5.770701|   -5.515693|  -12.924149|    2.656395|
|          36|  1.3383e+01|   -5.465000|   -5.849666|   -6.060061|   -5.769876|   -5.511049|  -12.919877|    2.655537|
|          37|  1.3358e+01|   -5.466821|   -5.854300|   -6.062479|   -5.768623|   -5.512539|  -12.913504|    2.661249|
|          38|  1.3347e+01|   -5.471235|   -5.848246|   -6.061981|   -5.765971|   -5.518447|  -12.903548|    2.670421|
|          39|  1.3333e+01|   -5.473696|   -5.829873|   -6.059141|   -5.761901|   -5.523389|  -12.888687|    2.679555|
|          40|  1.3328e+01|   -5.469807|   -5.803755|   -6.055179|   -5.755392|   -5.520025|  -12.875916|    2.686270|
|          41|  1.3320e+01|   -5.460322|   -5.781629|   -6.052396|   -5.747215|   -5.508104|  -12.869505|    2.689911|
|          42|  1.3325e+01|   -5.449278|   -5.766659|   -6.052654|   -5.738129|   -5.493789|  -12.863177|    2.691243|
|          43|  1.3324e+01|   -5.441064|   -5.750756|   -6.054222|   -5.727882|   -5.482928|  -12.851801|    2.691682|
|          44|  1.3320e+01|   -5.436683|   -5.726499|   -6.054456|   -5.716058|   -5.476925|  -12.839569|    2.692481|
|          45|  1.3312e+01|   -5.433981|   -5.694144|   -6.052501|   -5.702035|   -5.474474|  -12.822758|    2.694221|
|          46|  1.3308e+01|   -5.427166|   -5.655989|   -6.047365|   -5.684565|   -5.468823|  -12.801363|    2.696783|
|          47|  1.3304e+01|   -5.413476|   -5.616249|   -6.040250|   -5.664498|   -5.454929|  -12.780676|    2.699666|
|          48|  1.3300e+01|   -5.394854|   -5.581031|   -6.034473|   -5.643332|   -5.434403|  -12.765256|    2.702393|
|          49|  1.3295e+01|   -5.375435|   -5.551089|   -6.031160|   -5.622602|   -5.412982|  -12.750875|    2.704751|
|          50|  1.3293e+01|   -5.358881|   -5.522705|   -6.028464|   -5.602978|   -5.395261|  -12.735008|    2.706799|
|          51|  1.3296e+01|   -5.346101|   -5.493979|   -6.024861|   -5.584229|   -5.382632|  -12.720041|    2.708711|
|          52|  1.3294e+01|   -5.334999|   -5.465700|   -6.019288|   -5.565605|   -5.373460|  -12.704231|    2.710599|
|          53|  1.3291e+01|   -5.322033|   -5.438486|   -6.010884|   -5.547009|   -5.363273|  -12.686367|    2.712420|
|          54|  1.3288e+01|   -5.306200|   -5.413407|   -6.001574|   -5.529206|   -5.349599|  -12.669765|    2.714029|
|          55|  1.3284e+01|   -5.289172|   -5.392275|   -5.994259|   -5.513180|   -5.333815|  -12.657532|    2.715311|
|          56|  1.3279e+01|   -5.273426|   -5.375196|   -5.989402|   -5.499551|   -5.319111|  -12.648180|    2.716297|
|          57|  1.3276e+01|   -5.260901|   -5.360608|   -5.985554|   -5.488281|   -5.308015|  -12.639645|    2.717183|
|          58|  1.3272e+01|   -5.252000|   -5.347387|   -5.981568|   -5.478618|   -5.301341|  -12.632713|    2.718228|
|          59|  1.3268e+01|   -5.245426|   -5.335501|   -5.976494|   -5.469873|   -5.297947|  -12.625956|    2.719606|
|          60|  1.3268e+01|   -5.238918|   -5.324840|   -5.969795|   -5.461920|   -5.294855|  -12.618101|    2.721302|
|          61|  1.3270e+01|   -5.231542|   -5.315586|   -5.963127|   -5.455182|   -5.290136|  -12.610577|    2.723108|
|          62|  1.3266e+01|   -5.223834|   -5.308490|   -5.958284|   -5.449937|   -5.284084|  -12.605712|    2.724725|
|          63|  1.3262e+01|   -5.217009|   -5.303806|   -5.955274|   -5.446350|   -5.278348|  -12.603296|    2.725926|
|          64|  1.3258e+01|   -5.212208|   -5.300749|   -5.953114|   -5.444098|   -5.274604|  -12.602187|    2.726670|
|          65|  1.3256e+01|   -5.209998|   -5.298467|   -5.951019|   -5.442641|   -5.273857|  -12.601997|    2.727131|
|          66|  1.3251e+01|   -5.209760|   -5.296678|   -5.948198|   -5.441531|   -5.275694|  -12.601849|    2.727605|
|          67|  1.3247e+01|   -5.209907|   -5.295180|   -5.944509|   -5.440774|   -5.278074|  -12.600542|    2.728359|
|          68|  1.3246e+01|   -5.209214|   -5.293935|   -5.940836|   -5.440551|   -5.279002|  -12.598629|    2.729503|
|          69|  1.3244e+01|   -5.207613|   -5.293513|   -5.938137|   -5.440931|   -5.278087|  -12.597468|    2.730943|
|          70|  1.3248e+01|   -5.205808|   -5.294490|   -5.936607|   -5.441910|   -5.276267|  -12.598109|    2.732435|
|          71|  1.3244e+01|   -5.204919|   -5.296529|   -5.935693|   -5.443466|   -5.275176|  -12.600247|    2.733716|
|          72|  1.3243e+01|   -5.205895|   -5.298804|   -5.934791|   -5.445347|   -5.276308|  -12.602816|    2.734627|
|          73|  1.3240e+01|   -5.208675|   -5.300955|   -5.933524|   -5.447270|   -5.279944|  -12.605563|    2.735188|
|          74|  1.3237e+01|   -5.211932|   -5.302774|   -5.931702|   -5.449203|   -5.284522|  -12.607162|    2.735575|
|          75|  1.3232e+01|   -5.214085|   -5.304204|   -5.929456|   -5.451128|   -5.287657|  -12.607063|    2.736022|
|          76|  1.3227e+01|   -5.214727|   -5.305838|   -5.927565|   -5.453044|   -5.288426|  -12.606688|    2.736708|
|          77|  1.3224e+01|   -5.214510|   -5.308531|   -5.926559|   -5.455202|   -5.287579|  -12.607697|    2.737674|
|          78|  1.3220e+01|   -5.214628|   -5.312143|   -5.926043|   -5.457765|   -5.286808|  -12.610037|    2.738821|
|          79|  1.3227e+01|   -5.216306|   -5.315861|   -5.925591|   -5.460551|   -5.287940|  -12.613254|    2.739963|
|          80|  1.3225e+01|   -5.219844|   -5.319200|   -5.925078|   -5.463291|   -5.291765|  -12.617059|    2.740930|
|          81|  1.3225e+01|   -5.224013|   -5.321974|   -5.924058|   -5.465783|   -5.296912|  -12.619414|    2.741644|
|          82|  1.3222e+01|   -5.227053|   -5.324096|   -5.922343|   -5.467938|   -5.300786|  -12.619713|    2.742146|
|          83|  1.3219e+01|   -5.228408|   -5.326163|   -5.920773|   -5.470070|   -5.302215|  -12.619322|    2.742567|
|          84|  1.3219e+01|   -5.228577|   -5.329061|   -5.919883|   -5.472434|   -5.301695|  -12.619316|    2.743054|
|          85|  1.3219e+01|   -5.228614|   -5.332877|   -5.919356|   -5.475035|   -5.300667|  -12.620712|    2.743702|
|          86|  1.3216e+01|   -5.229885|   -5.336873|   -5.918981|   -5.477764|   -5.301143|  -12.623682|    2.744512|
|          87|  1.3215e+01|   -5.232965|   -5.340496|   -5.918742|   -5.480349|   -5.304240|  -12.627076|    2.745403|
|          88|  1.3216e+01|   -5.236967|   -5.343487|   -5.918091|   -5.482518|   -5.309053|  -12.629521|    2.746255|
|          89|  1.3216e+01|   -5.240325|   -5.345711|   -5.916866|   -5.484590|   -5.313354|  -12.630105|    2.746973|
|          90|  1.3215e+01|   -5.242054|   -5.347572|   -5.915585|   -5.486770|   -5.315475|  -12.629169|    2.747529|
|          91|  1.3214e+01|   -5.242199|   -5.349976|   -5.914716|   -5.488924|   -5.315242|  -12.627767|    2.747965|
|          92|  1.3212e+01|   -5.241595|   -5.353347|   -5.914125|   -5.491011|   -5.313714|  -12.627803|    2.748368|
|          93|  1.3210e+01|   -5.241752|   -5.357180|   -5.913819|   -5.493121|   -5.313033|  -12.629370|    2.748823|
|          94|  1.3207e+01|   -5.243682|   -5.360809|   -5.913809|   -5.495075|   -5.314782|  -12.631992|    2.749373|
|          95|  1.3205e+01|   -5.247219|   -5.363805|   -5.913722|   -5.497051|   -5.319035|  -12.634667|    2.750006|
|          96|  1.3202e+01|   -5.250843|   -5.365886|   -5.913069|   -5.499186|   -5.323836|  -12.635455|    2.750661|
|          97|  1.3206e+01|   -5.252915|   -5.367292|   -5.911960|   -5.501189|   -5.326727|  -12.634166|    2.751269|
|          98|  1.3204e+01|   -5.252985|   -5.368993|   -5.910854|   -5.502804|   -5.326772|  -12.632053|    2.751784|
|          99|  1.3204e+01|   -5.251755|   -5.371767|   -5.909866|   -5.504153|   -5.324735|  -12.630542|    2.752199|
|         100|  1.3203e+01|   -5.250863|   -5.375363|   -5.909083|   -5.505476|   -5.322817|  -12.630850|    2.752551|
|         101|  1.3203e+01|   -5.251910|   -5.378989|   -5.908704|   -5.507156|   -5.323355|  -12.633018|    2.752894|
|         102|  1.3202e+01|   -5.255116|   -5.381955|   -5.908401|   -5.509233|   -5.327047|  -12.635658|    2.753271|
|         103|  1.3201e+01|   -5.258947|   -5.383837|   -5.907485|   -5.511253|   -5.332120|  -12.636480|    2.753700|
|         104|  1.3199e+01|   -5.261316|   -5.384819|   -5.905884|   -5.512790|   -5.335614|  -12.635154|    2.754162|
|         105|  1.3139e+01|   -5.261382|   -5.385858|   -5.904203|   -5.513791|   -5.336035|  -12.635689|    2.754197|
|         106|  1.3079e+01|   -5.259674|   -5.385971|   -5.902670|   -5.512631|   -5.334022|  -12.633435|    2.754239|
|         107|  1.3020e+01|   -5.257577|   -5.386152|   -5.900816|   -5.511228|   -5.331542|  -12.630710|    2.754288|
|         108|  1.2961e+01|   -5.255043|   -5.386423|   -5.898597|   -5.509551|   -5.328535|  -12.627447|    2.754348|
|         109|  1.2904e+01|   -5.252011|   -5.386809|   -5.895971|   -5.507568|   -5.324931|  -12.623596|    2.754418|
|         110|  1.2848e+01|   -5.248411|   -5.387324|   -5.892890|   -5.505244|   -5.320651|  -12.619159|    2.754502|
|         111|  1.2800e+01|   -5.244211|   -5.387959|   -5.889344|   -5.502565|   -5.315678|  -12.614262|    2.754601|
|         112|  1.2753e+01|   -5.239446|   -5.388639|   -5.885362|   -5.499558|   -5.310097|  -12.609213|    2.754718|
|         113|  1.2707e+01|   -5.234292|   -5.389210|   -5.881084|   -5.496325|   -5.304210|  -12.604557|    2.754855|
|         114|  1.2667e+01|   -5.229198|   -5.389377|   -5.876811|   -5.493127|   -5.298676|  -12.601099|    2.755017|
|         115|  1.2629e+01|   -5.225022|   -5.388679|   -5.873017|   -5.490486|   -5.294665|  -12.599767|    2.755204|
|         116|  1.2599e+01|   -5.223006|   -5.386652|   -5.870296|   -5.489189|   -5.293683|  -12.601373|    2.755419|
|         117|  1.2569e+01|   -5.224587|   -5.383100|   -5.869008|   -5.490175|   -5.297185|  -12.605601|    2.755661|
|         118|  1.2544e+01|   -5.230524|   -5.378486|   -5.868807|   -5.493907|   -5.305419|  -12.609883|    2.755925|
|         119|  1.2521e+01|   -5.239360|   -5.373929|   -5.868164|   -5.499188|   -5.315776|  -12.609113|    2.756199|
|         120|  1.2505e+01|   -5.245974|   -5.370779|   -5.864175|   -5.502391|   -5.321622|  -12.597054|    2.756463|
|         121|  1.2495e+01|   -5.241381|   -5.370304|   -5.853990|   -5.498162|   -5.312873|  -12.578991|    2.756691|
|         122|  1.2485e+01|   -5.227660|   -5.373230|   -5.842118|   -5.488311|   -5.293931|  -12.575708|    2.756867|
|         123|  1.2482e+01|   -5.219189|   -5.378816|   -5.838741|   -5.483340|   -5.283487|  -12.587027|    2.757010|
|         124|  1.2487e+01|   -5.220289|   -5.386098|   -5.845034|   -5.485960|   -5.286051|  -12.595464|    2.757195|
|         125|  1.2486e+01|   -5.224560|   -5.393546|   -5.853277|   -5.490536|   -5.292667|  -12.598512|    2.757486|
|         126|  1.2483e+01|   -5.228551|   -5.399227|   -5.858756|   -5.494581|   -5.298546|  -12.602626|    2.757893|
|         127|  1.2481e+01|   -5.233674|   -5.402618|   -5.862352|   -5.499882|   -5.305147|  -12.606908|    2.758424|
|         128|  1.2479e+01|   -5.240043|   -5.403362|   -5.864548|   -5.506392|   -5.312398|  -12.610434|    2.759123|
|         129|  1.2484e+01|   -5.248035|   -5.402121|   -5.866827|   -5.513541|   -5.321408|  -12.613252|    2.760114|
|         130|  1.2488e+01|   -5.255919|   -5.400783|   -5.869288|   -5.519197|   -5.331315|  -12.613563|    2.761614|
|         131|  1.2488e+01|   -5.259242|   -5.400081|   -5.868890|   -5.520665|   -5.336545|  -12.609640|    2.763910|
|         132|  1.2487e+01|   -5.255682|   -5.400024|   -5.864953|   -5.517972|   -5.332609|  -12.602931|    2.767288|
|         133|  1.2486e+01|   -5.249070|   -5.401519|   -5.861410|   -5.514541|   -5.323853|  -12.599781|    2.771943|
|         134|  1.2484e+01|   -5.245725|   -5.404879|   -5.861375|   -5.513529|   -5.319570|  -12.600378|    2.777888|
|         135|  1.2483e+01|   -5.246274|   -5.408222|   -5.862896|   -5.514788|   -5.320882|  -12.600708|    2.784890|
|         136|  1.2482e+01|   -5.248753|   -5.409863|   -5.864486|   -5.517479|   -5.324694|  -12.599132|    2.792470|
|         137|  1.2481e+01|   -5.251926|   -5.410277|   -5.866163|   -5.520682|   -5.329301|  -12.596419|    2.799957|
|         138|  1.2479e+01|   -5.255243|   -5.409936|   -5.867164|   -5.523233|   -5.334675|  -12.594586|    2.806601|
|         139|  1.2478e+01|   -5.256672|   -5.408386|   -5.865703|   -5.523257|   -5.338624|  -12.591978|    2.811712|
|         140|  1.2476e+01|   -5.253401|   -5.407230|   -5.862036|   -5.520140|   -5.336012|  -12.583767|    2.814798|
|         141|  1.2476e+01|   -5.246520|   -5.408389|   -5.858472|   -5.516523|   -5.326843|  -12.577595|    2.815667|
|         142|  1.2476e+01|   -5.242487|   -5.411499|   -5.858087|   -5.515432|   -5.321098|  -12.579376|    2.814465|
|         143|  1.2476e+01|   -5.243495|   -5.414042|   -5.859853|   -5.516963|   -5.322690|  -12.583552|    2.811642|
|         144|  1.2475e+01|   -5.246841|   -5.414606|   -5.861810|   -5.519551|   -5.327740|  -12.584257|    2.807868|
|         145|  1.2474e+01|   -5.249888|   -5.413893|   -5.862955|   -5.521714|   -5.332621|  -12.581859|    2.803912|
|         146|  1.2472e+01|   -5.251638|   -5.412634|   -5.862502|   -5.522143|   -5.336580|  -12.578741|    2.800510|
|         147|  1.2471e+01|   -5.250389|   -5.410857|   -5.859815|   -5.519981|   -5.337233|  -12.574286|    2.798252|
|         148|  1.2471e+01|   -5.245063|   -5.410351|   -5.855906|   -5.515861|   -5.331541|  -12.566180|    2.797497|
|         149|  1.2469e+01|   -5.238035|   -5.411933|   -5.853056|   -5.512318|   -5.321998|  -12.561106|    2.798342|
|         150|  1.2468e+01|   -5.234807|   -5.414670|   -5.852945|   -5.511267|   -5.317465|  -12.562129|    2.800637|
+-----------------------------------------------------------------------+
|        File Writing Summary       |              Filename             |
+-----------------------------------------------------------------------+
|SU2 binary restart                 |restart_flow.dat                   |
|Paraview                           |flow.vtu                           |
|Paraview surface                   |surface_flow.vtu                   |
+-----------------------------------------------------------------------+
+--------------------------------------------------------------------------------------------------------------------+
|  Inner_Iter|   Time(sec)|    rms[Rho]|   rms[RhoU]|   rms[RhoV]|   rms[RhoW]|   rms[RhoE]|     rms[nu]|          CD|
+--------------------------------------------------------------------------------------------------------------------+
|         151|  1.2609e+01|   -5.236278|   -5.416178|   -5.854357|   -5.512483|   -5.319869|  -12.564500|    2.804046|
|         152|  1.2607e+01|   -5.239703|   -5.415533|   -5.855871|   -5.514656|   -5.325238|  -12.563770|    2.808135|
|         153|  1.2602e+01|   -5.242392|   -5.413869|   -5.856425|   -5.516175|   -5.329926|  -12.560081|    2.812449|
|         154|  1.2598e+01|   -5.243054|   -5.411719|   -5.855015|   -5.515545|   -5.332542|  -12.555968|    2.816593|
|         155|  1.2593e+01|   -5.240607|   -5.409555|   -5.851808|   -5.512358|   -5.331327|  -12.550628|    2.820273|
|         156|  1.2587e+01|   -5.234515|   -5.408954|   -5.847901|   -5.507577|   -5.324212|  -12.543088|    2.823315|
|         157|  1.2578e+01|   -5.227267|   -5.410340|   -5.845061|   -5.503254|   -5.314287|  -12.538301|    2.825653|
|         158|  1.2568e+01|   -5.223378|   -5.412601|   -5.844062|   -5.500729|   -5.308928|  -12.538156|    2.827308|
|         159|  1.2559e+01|   -5.223923|   -5.413504|   -5.844373|   -5.500458|   -5.310022|  -12.539687|    2.828353|
|         160|  1.2549e+01|   -5.226998|   -5.412140|   -5.845269|   -5.501937|   -5.314743|  -12.539007|    2.828884|
|         161|  1.2539e+01|   -5.230106|   -5.409616|   -5.845649|   -5.503675|   -5.319816|  -12.535840|    2.828997|
|         162|  1.2530e+01|   -5.231493|   -5.406476|   -5.844311|   -5.503652|   -5.323279|  -12.532053|    2.828776|
|         163|  1.2521e+01|   -5.229448|   -5.403481|   -5.840780|   -5.500460|   -5.322366|  -12.525920|    2.828289|
|         164|  1.2511e+01|   -5.223223|   -5.402108|   -5.836189|   -5.495197|   -5.314680|  -12.518229|    2.827593|
|         165|  1.2501e+01|   -5.215747|   -5.402868|   -5.832671|   -5.490225|   -5.304296|  -12.514141|    2.826732|
|         166|  1.2493e+01|   -5.210929|   -5.404760|   -5.830605|   -5.486436|   -5.297727|  -12.513247|    2.825744|
|         167|  1.2484e+01|   -5.209468|   -5.405622|   -5.829093|   -5.483989|   -5.295944|  -12.513110|    2.824660|
|         168|  1.2475e+01|   -5.210545|   -5.404280|   -5.828088|   -5.483227|   -5.297469|  -12.512187|    2.823507|
|         169|  1.2467e+01|   -5.213223|   -5.401538|   -5.827699|   -5.484172|   -5.301320|  -12.510621|    2.822303|
|         170|  1.2461e+01|   -5.216452|   -5.397873|   -5.827261|   -5.485743|   -5.306901|  -12.509752|    2.821060|
|         171|  1.2454e+01|   -5.217362|   -5.393848|   -5.824998|   -5.485064|   -5.310195|  -12.504769|    2.819786|
|         172|  1.2446e+01|   -5.212404|   -5.390699|   -5.819641|   -5.480484|   -5.304357|  -12.494915|    2.818486|
|         173|  1.2439e+01|   -5.204268|   -5.389528|   -5.814110|   -5.474643|   -5.292909|  -12.489364|    2.817166|
|         174|  1.2431e+01|   -5.198426|   -5.390119|   -5.810992|   -5.470060|   -5.285214|  -12.489232|    2.815832|
|         175|  1.2424e+01|   -5.195219|   -5.390429|   -5.808735|   -5.466384|   -5.281717|  -12.488328|    2.814495|
|         176|  1.2415e+01|   -5.192819|   -5.388632|   -5.805517|   -5.462744|   -5.278847|  -12.484914|    2.813161|
|         177|  1.2408e+01|   -5.191329|   -5.384875|   -5.801835|   -5.459487|   -5.276628|  -12.481579|    2.811840|
|         178|  1.2401e+01|   -5.191954|   -5.379919|   -5.799174|   -5.457646|   -5.277680|  -12.481101|    2.810534|
|         179|  1.2394e+01|   -5.194455|   -5.373946|   -5.797732|   -5.456974|   -5.282644|  -12.480854|    2.809244|
|         180|  1.2387e+01|   -5.193984|   -5.367280|   -5.794541|   -5.454313|   -5.283846|  -12.474283|    2.807965|
|         181|  1.2380e+01|   -5.186767|   -5.360598|   -5.787439|   -5.447605|   -5.273994|  -12.462920|    2.806694|
|         182|  1.2373e+01|   -5.177228|   -5.354690|   -5.779275|   -5.438669|   -5.260108|  -12.457302|    2.805429|
|         183|  1.2366e+01|   -5.170540|   -5.349122|   -5.773143|   -5.430148|   -5.251057|  -12.456642|    2.804172|
|         184|  1.2358e+01|   -5.165655|   -5.342060|   -5.767795|   -5.422119|   -5.244878|  -12.454510|    2.802928|
|         185|  1.2351e+01|   -5.159862|   -5.332224|   -5.760687|   -5.413200|   -5.236678|  -12.448618|    2.801705|
|         186|  1.2345e+01|   -5.153085|   -5.319750|   -5.751263|   -5.402766|   -5.226181|  -12.442289|    2.800513|
|         187|  1.2337e+01|   -5.147203|   -5.305253|   -5.740994|   -5.391433|   -5.216767|  -12.438739|    2.799355|
|         188|  1.2327e+01|   -5.142980|   -5.289049|   -5.731113|   -5.379809|   -5.210181|  -12.436270|    2.798232|
|         189|  1.2316e+01|   -5.137142|   -5.271261|   -5.720189|   -5.366866|   -5.201743|  -12.430059|    2.797139|
|         190|  1.2305e+01|   -5.126005|   -5.252054|   -5.705776|   -5.351149|   -5.185746|  -12.418562|    2.796069|
|         191|  1.2294e+01|   -5.111085|   -5.231822|   -5.688080|   -5.332710|   -5.164498|  -12.408270|    2.795014|
|         192|  1.2285e+01|   -5.096359|   -5.210832|   -5.669311|   -5.312783|   -5.144169|  -12.401519|    2.793966|
|         193|  1.2274e+01|   -5.082488|   -5.188690|   -5.650290|   -5.292276|   -5.125734|  -12.395390|    2.792927|
|         194|  1.2264e+01|   -5.067750|   -5.165061|   -5.630176|   -5.271268|   -5.106706|  -12.386489|    2.791901|
|         195|  1.2253e+01|   -5.051020|   -5.140100|   -5.608172|   -5.249484|   -5.085596|  -12.375208|    2.790894|
|         196|  1.2244e+01|   -5.032881|   -5.114324|   -5.584500|   -5.226847|   -5.063443|  -12.363893|    2.789917|
|         197|  1.2235e+01|   -5.014431|   -5.088228|   -5.560007|   -5.203577|   -5.041983|  -12.353514|    2.788977|
|         198|  1.2225e+01|   -4.995519|   -5.062137|   -5.535321|   -5.179907|   -5.021243|  -12.342278|    2.788076|
|         199|  1.2217e+01|   -4.974665|   -5.036190|   -5.510135|   -5.155795|   -4.999417|  -12.328183|    2.787210|
|         200|  1.2185e+01|   -4.951304|   -5.010446|   -5.484103|   -5.131318|   -4.975648|  -12.335924|    2.787185|
|         201|  1.2153e+01|   -4.950364|   -5.009707|   -5.483364|   -5.130538|   -4.974843|  -12.334931|    2.787156|
|         202|  1.2125e+01|   -4.949241|   -5.008822|   -5.482476|   -5.129606|   -4.973881|  -12.333743|    2.787121|
|         203|  1.2097e+01|   -4.947904|   -5.007761|   -5.481407|   -5.128492|   -4.972736|  -12.332322|    2.787078|
|         204|  1.2070e+01|   -4.946314|   -5.006491|   -5.480121|   -5.127162|   -4.971374|  -12.330628|    2.787028|
|         205|  1.2043e+01|   -4.944428|   -5.004970|   -5.478573|   -5.125575|   -4.969760|  -12.328615|    2.786967|
|         206|  1.2017e+01|   -4.942196|   -5.003148|   -5.476708|   -5.123684|   -4.967851|  -12.326236|    2.786893|
|         207|  1.1991e+01|   -4.939566|   -5.000966|   -5.474462|   -5.121433|   -4.965605|  -12.323442|    2.786806|
|         208|  1.1968e+01|   -4.936480|   -4.998352|   -5.471754|   -5.118757|   -4.962976|  -12.320188|    2.786700|
|         209|  1.1946e+01|   -4.932879|   -4.995221|   -5.468488|   -5.115578|   -4.959920|  -12.316436|    2.786573|
|         210|  1.1924e+01|   -4.928700|   -4.991467|   -5.464548|   -5.111805|   -4.956390|  -12.312161|    2.786420|
|         211|  1.1902e+01|   -4.923872|   -4.986960|   -5.459791|   -5.107324|   -4.952334|  -12.307341|    2.786236|
|         212|  1.1884e+01|   -4.918302|   -4.981541|   -5.454043|   -5.102000|   -4.947681|  -12.301942|    2.786013|
|         213|  1.1866e+01|   -4.911845|   -4.975009|   -5.447090|   -5.095658|   -4.942309|  -12.295881|    2.785742|
|         214|  1.1852e+01|   -4.904252|   -4.967105|   -5.438670|   -5.088065|   -4.935995|  -12.288914|    2.785411|
|         215|  1.1837e+01|   -4.895096|   -4.957497|   -5.428461|   -5.078907|   -4.928342|  -12.280512|    2.785006|
|         216|  1.1827e+01|   -4.883710|   -4.945749|   -5.416067|   -5.067762|   -4.918705|  -12.269744|    2.784508|
|         217|  1.1816e+01|   -4.869189|   -4.931325|   -5.401003|   -5.054077|   -4.906209|  -12.255503|    2.783896|
|         218|  1.1809e+01|   -4.850577|   -4.913627|   -5.382696|   -5.037163|   -4.889973|  -12.237102|    2.783146|
|         219|  1.1801e+01|   -4.827270|   -4.892151|   -5.360547|   -5.016283|   -4.869625|  -12.217345|    2.782297|
|         220|  1.1795e+01|   -4.800721|   -4.868348|   -5.335843|   -4.992526|   -4.846932|  -12.200418|    2.781462|
|         221|  1.1788e+01|   -4.774295|   -4.845635|   -5.311993|   -4.969288|   -4.825133|  -12.183056|    2.780643|
|         222|  1.1781e+01|   -4.748341|   -4.824157|   -5.289089|   -4.947079|   -4.804397|  -12.165150|    2.779837|
|         223|  1.1775e+01|   -4.723130|   -4.803933|   -5.267248|   -4.926227|   -4.784888|  -12.146579|    2.779035|
|         224|  1.1768e+01|   -4.698847|   -4.784959|   -5.246533|   -4.906812|   -4.766809|  -12.127636|    2.778220|
|         225|  1.1762e+01|   -4.675571|   -4.767223|   -5.226953|   -4.888725|   -4.750341|  -12.108856|    2.777376|
|         226|  1.1756e+01|   -4.653288|   -4.750728|   -5.208527|   -4.871792|   -4.735580|  -12.090157|    2.776484|
|         227|  1.1749e+01|   -4.631684|   -4.735436|   -5.191201|   -4.855816|   -4.722118|  -12.071195|    2.775534|
|         228|  1.1742e+01|   -4.610399|   -4.721227|   -5.174898|   -4.840649|   -4.709295|  -12.051776|    2.774520|
|         229|  1.1735e+01|   -4.589343|   -4.707951|   -5.159586|   -4.826213|   -4.696741|  -12.032067|    2.773449|
|         230|  1.1729e+01|   -4.568674|   -4.695481|   -5.145271|   -4.812477|   -4.684510|  -12.012663|    2.772329|
|         231|  1.1704e+01|   -4.548647|   -4.683726|   -5.131963|   -4.799424|   -4.672909|  -12.059477|    2.772297|
|         232|  1.1679e+01|   -4.547938|   -4.683397|   -5.131739|   -4.799031|   -4.672567|  -12.058002|    2.772258|
|         233|  1.1657e+01|   -4.547096|   -4.683008|   -5.131466|   -4.798565|   -4.672165|  -12.056243|    2.772211|
|         234|  1.1635e+01|   -4.546099|   -4.682549|   -5.131132|   -4.798013|   -4.671695|  -12.054149|    2.772155|
|         235|  1.1613e+01|   -4.544922|   -4.682010|   -5.130721|   -4.797360|   -4.671149|  -12.051658|    2.772086|
|         236|  1.1592e+01|   -4.543535|   -4.681379|   -5.130215|   -4.796591|   -4.670519|  -12.048705|    2.772003|
|         237|  1.1570e+01|   -4.541906|   -4.680644|   -5.129590|   -4.795688|   -4.669798|  -12.045212|    2.771903|
|         238|  1.1549e+01|   -4.540002|   -4.679792|   -5.128813|   -4.794630|   -4.668980|  -12.041094|    2.771781|
|         239|  1.1531e+01|   -4.537786|   -4.678809|   -5.127846|   -4.793397|   -4.668064|  -12.036259|    2.771633|
|         240|  1.1513e+01|   -4.535217|   -4.677681|   -5.126636|   -4.791965|   -4.667049|  -12.030603|    2.771453|
|         241|  1.1496e+01|   -4.532254|   -4.676391|   -5.125117|   -4.790306|   -4.665939|  -12.024015|    2.771232|
|         242|  1.1479e+01|   -4.528847|   -4.674914|   -5.123208|   -4.788388|   -4.664736|  -12.016373|    2.770963|
|         243|  1.1465e+01|   -4.524936|   -4.673217|   -5.120806|   -4.786162|   -4.663428|  -12.007532|    2.770634|
|         244|  1.1451e+01|   -4.520433|   -4.671234|   -5.117788|   -4.783559|   -4.661977|  -11.997318|    2.770231|
|         245|  1.1437e+01|   -4.515211|   -4.668857|   -5.114011|   -4.780466|   -4.660279|  -11.985514|    2.769738|
|         246|  1.1426e+01|   -4.509067|   -4.665896|   -5.109326|   -4.776706|   -4.658128|  -11.971853|    2.769136|
|         247|  1.1415e+01|   -4.501693|   -4.662054|   -5.103593|   -4.772006|   -4.655159|  -11.956055|    2.768403|
|         248|  1.1408e+01|   -4.492662|   -4.656912|   -5.096707|   -4.765986|   -4.650823|  -11.937912|    2.767511|
|         249|  1.1404e+01|   -4.481440|   -4.649957|   -5.088636|   -4.758170|   -4.644411|  -11.917361|    2.766420|
|         250|  1.1398e+01|   -4.467489|   -4.640697|   -5.079447|   -4.748095|   -4.635186|  -11.898616|    2.765154|
|         251|  1.1394e+01|   -4.451526|   -4.629703|   -5.070016|   -4.736318|   -4.623509|  -11.886918|    2.763843|
|         252|  1.1389e+01|   -4.435911|   -4.618942|   -5.061782|   -4.724736|   -4.611450|  -11.875747|    2.762470|
|         253|  1.1385e+01|   -4.421212|   -4.608912|   -5.054493|   -4.713858|   -4.599844|  -11.865284|    2.761024|
|         254|  1.1380e+01|   -4.407812|   -4.599905|   -5.047876|   -4.703998|   -4.589271|  -11.855566|    2.759509|
|         255|  1.1376e+01|   -4.395881|   -4.592034|   -5.041664|   -4.695253|   -4.579989|  -11.846494|    2.757942|
|         256|  1.1371e+01|   -4.385418|   -4.585271|   -5.035628|   -4.687579|   -4.571955|  -11.837913|    2.756343|
|         257|  1.1367e+01|   -4.376293|   -4.579490|   -5.029571|   -4.680803|   -4.564905|  -11.829712|    2.754736|
|         258|  1.1362e+01|   -4.368327|   -4.574515|   -5.023356|   -4.674698|   -4.558510|  -11.821838|    2.753133|
|         259|  1.1357e+01|   -4.361315|   -4.570146|   -5.016888|   -4.669018|   -4.552455|  -11.814287|    2.751532|
|         260|  1.1353e+01|   -4.355084|   -4.566169|   -5.010131|   -4.663544|   -4.546481|  -11.807101|    2.749909|
|         261|  1.1349e+01|   -4.349485|   -4.562376|   -5.003087|   -4.658084|   -4.540393|  -11.800343|    2.748215|
|         262|  1.1345e+01|   -4.344404|   -4.558584|   -4.995793|   -4.652496|   -4.534070|  -11.794075|    2.746384|
|         263|  1.1340e+01|   -4.339762|   -4.554660|   -4.988296|   -4.646697|   -4.527450|  -11.788356|    2.744332|
|         264|  1.1336e+01|   -4.335506|   -4.550524|   -4.980637|   -4.640667|   -4.520522|  -11.783191|    2.741968|
|         265|  1.1332e+01|   -4.331604|   -4.546156|   -4.972851|   -4.634443|   -4.513312|  -11.778557|    2.739207|
|         266|  1.1328e+01|   -4.328032|   -4.541567|   -4.964973|   -4.628102|   -4.505884|  -11.774402|    2.735972|
|         267|  1.1323e+01|   -4.324774|   -4.536805|   -4.957040|   -4.621738|   -4.498313|  -11.770692|    2.732210|
|         268|  1.1319e+01|   -4.321805|   -4.531928|   -4.949121|   -4.615453|   -4.490684|  -11.767325|    2.727895|
|         269|  1.1315e+01|   -4.319087|   -4.527006|   -4.941287|   -4.609304|   -4.483060|  -11.764247|    2.723029|
|         270|  1.1311e+01|   -4.316565|   -4.522102|   -4.933592|   -4.603310|   -4.475480|  -11.761401|    2.717644|
|         271|  1.1307e+01|   -4.314173|   -4.517273|   -4.926094|   -4.597461|   -4.467958|  -11.758727|    2.711798|
|         272|  1.1303e+01|   -4.311838|   -4.512552|   -4.918794|   -4.591744|   -4.460491|  -11.756196|    2.705571|
|         273|  1.1299e+01|   -4.309508|   -4.507960|   -4.911693|   -4.586157|   -4.453099|  -11.753788|    2.699055|
|         274|  1.1295e+01|   -4.307160|   -4.503522|   -4.904780|   -4.580733|   -4.445829|  -11.751496|    2.692351|
|         275|  1.1291e+01|   -4.304801|   -4.499256|   -4.898071|   -4.575518|   -4.438740|  -11.749264|    2.685560|
|         276|  1.1287e+01|   -4.302404|   -4.495185|   -4.891622|   -4.570572|   -4.431897|  -11.747031|    2.678780|
|         277|  1.1283e+01|   -4.299975|   -4.491336|   -4.885499|   -4.565929|   -4.425345|  -11.744805|    2.672100|
|         278|  1.1280e+01|   -4.297509|   -4.487721|   -4.879737|   -4.561600|   -4.419103|  -11.742593|    2.665601|
|         279|  1.1276e+01|   -4.295009|   -4.484342|   -4.874350|   -4.557585|   -4.413190|  -11.740401|    2.659348|
|         280|  1.1272e+01|   -4.292486|   -4.481225|   -4.869317|   -4.553878|   -4.407650|  -11.738244|    2.653400|
|         281|  1.1269e+01|   -4.289945|   -4.478397|   -4.864576|   -4.550462|   -4.402473|  -11.736013|    2.647802|
|         282|  1.1265e+01|   -4.287407|   -4.475904|   -4.860083|   -4.547314|   -4.397629|  -11.733765|    2.642591|
|         283|  1.1261e+01|   -4.284859|   -4.473739|   -4.855799|   -4.544408|   -4.393075|  -11.731587|    2.637792|
|         284|  1.1257e+01|   -4.282341|   -4.471893|   -4.851757|   -4.541741|   -4.388853|  -11.729551|    2.633425|
|         285|  1.1255e+01|   -4.279947|   -4.470366|   -4.848043|   -4.539361|   -4.385057|  -11.727710|    2.629495|
|         286|  1.1252e+01|   -4.277765|   -4.469163|   -4.844690|   -4.537290|   -4.381752|  -11.726060|    2.625995|
|         287|  1.1248e+01|   -4.275815|   -4.468295|   -4.841681|   -4.535509|   -4.378939|  -11.724526|    2.622905|
|         288|  1.1245e+01|   -4.274089|   -4.467791|   -4.838948|   -4.533999|   -4.376594|  -11.722932|    2.620187|
|         289|  1.1241e+01|   -4.272529|   -4.467625|   -4.836414|   -4.532727|   -4.374593|  -11.721207|    2.617787|
|         290|  1.1238e+01|   -4.271130|   -4.467769|   -4.833993|   -4.531664|   -4.372872|  -11.719456|    2.615636|
|         291|  1.1234e+01|   -4.269964|   -4.468228|   -4.831676|   -4.530827|   -4.371528|  -11.717805|    2.613653|
|         292|  1.1231e+01|   -4.269075|   -4.469030|   -4.829544|   -4.530182|   -4.370609|  -11.716262|    2.611748|
|         293|  1.1228e+01|   -4.268413|   -4.470192|   -4.827632|   -4.529664|   -4.370021|  -11.714805|    2.609830|
|         294|  1.1224e+01|   -4.267943|   -4.471669|   -4.825938|   -4.529293|   -4.369695|  -11.713327|    2.607808|
|         295|  1.1221e+01|   -4.267626|   -4.473358|   -4.824433|   -4.529062|   -4.369538|  -11.711792|    2.605601|
|         296|  1.1219e+01|   -4.267449|   -4.475223|   -4.823040|   -4.528965|   -4.369514|  -11.710343|    2.603139|
|         297|  1.1218e+01|   -4.267470|   -4.477373|   -4.821722|   -4.528998|   -4.369678|  -11.709053|    2.600369|
|         298|  1.1215e+01|   -4.267663|   -4.479778|   -4.820416|   -4.529146|   -4.369981|  -11.707827|    2.597253|
|         299|  1.1212e+01|   -4.268026|   -4.482381|   -4.819123|   -4.529406|   -4.370433|  -11.706648|    2.593774|
|         300|  1.1209e+01|   -4.268609|   -4.485128|   -4.817937|   -4.529786|   -4.371067|  -11.705618|    2.589929|
+-----------------------------------------------------------------------+
|        File Writing Summary       |              Filename             |
+-----------------------------------------------------------------------+
|SU2 binary restart                 |restart_flow.dat                   |
|Paraview                           |flow.vtu                           |
|Paraview surface                   |surface_flow.vtu                   |
+-----------------------------------------------------------------------+
+--------------------------------------------------------------------------------------------------------------------+
|  Inner_Iter|   Time(sec)|    rms[Rho]|   rms[RhoU]|   rms[RhoV]|   rms[RhoW]|   rms[RhoE]|     rms[nu]|          CD|
+--------------------------------------------------------------------------------------------------------------------+
|         301|  1.1278e+01|   -4.269445|   -4.488001|   -4.816932|   -4.530296|   -4.371920|  -11.704735|    2.585731|
|         302|  1.1275e+01|   -4.270525|   -4.491027|   -4.816163|   -4.530921|   -4.373021|  -11.703798|    2.581203|
|         303|  1.1272e+01|   -4.271794|   -4.494235|   -4.815647|   -4.531630|   -4.374311|  -11.702661|    2.576378|
|         304|  1.1269e+01|   -4.273155|   -4.497619|   -4.815258|   -4.532368|   -4.375641|  -11.701421|    2.571291|
|         305|  1.1265e+01|   -4.274566|   -4.501114|   -4.814894|   -4.533123|   -4.376932|  -11.700156|    2.565979|
|         306|  1.1262e+01|   -4.276055|   -4.504678|   -4.814529|   -4.533908|   -4.378223|  -11.698936|    2.560477|
|         307|  1.1258e+01|   -4.277639|   -4.508277|   -4.814182|   -4.534712|   -4.379540|  -11.697748|    2.554816|
|         308|  1.1254e+01|   -4.279344|   -4.511939|   -4.813860|   -4.535533|   -4.380930|  -11.696594|    2.549017|
|         309|  1.1251e+01|   -4.281168|   -4.515646|   -4.813580|   -4.536370|   -4.382403|  -11.695471|    2.543099|
|         310|  1.1247e+01|   -4.283096|   -4.519411|   -4.813388|   -4.537219|   -4.383944|  -11.694295|    2.537071|
|         311|  1.1244e+01|   -4.285085|   -4.523205|   -4.813265|   -4.538059|   -4.385502|  -11.692995|    2.530934|
|         312|  1.1241e+01|   -4.287089|   -4.527001|   -4.813146|   -4.538887|   -4.387052|  -11.691564|    2.524686|
|         313|  1.1237e+01|   -4.289184|   -4.530885|   -4.813022|   -4.539737|   -4.388653|  -11.690085|    2.518319|
|         314|  1.1234e+01|   -4.291396|   -4.534860|   -4.812868|   -4.540626|   -4.390348|  -11.688614|    2.511824|
|         315|  1.1231e+01|   -4.293701|   -4.538887|   -4.812685|   -4.541546|   -4.392120|  -11.687186|    2.505188|
|         316|  1.1227e+01|   -4.296092|   -4.542985|   -4.812523|   -4.542491|   -4.393966|  -11.685754|    2.498400|
|         317|  1.1224e+01|   -4.298530|   -4.547160|   -4.812441|   -4.543435|   -4.395850|  -11.684217|    2.491451|
|         318|  1.1221e+01|   -4.300947|   -4.551408|   -4.812481|   -4.544319|   -4.397704|  -11.682503|    2.484332|
|         319|  1.1217e+01|   -4.303290|   -4.555655|   -4.812606|   -4.545116|   -4.399458|  -11.680643|    2.477037|
|         320|  1.1214e+01|   -4.305577|   -4.559843|   -4.812770|   -4.545852|   -4.401121|  -11.678692|    2.469561|
|         321|  1.1211e+01|   -4.307879|   -4.563964|   -4.812918|   -4.546565|   -4.402792|  -11.676723|    2.461903|
|         322|  1.1208e+01|   -4.310249|   -4.568046|   -4.813029|   -4.547268|   -4.404536|  -11.674698|    2.454061|
|         323|  1.1205e+01|   -4.312693|   -4.572142|   -4.813119|   -4.547950|   -4.406372|  -11.672491|    2.446036|
|         324|  1.1201e+01|   -4.315148|   -4.576250|   -4.813221|   -4.548607|   -4.408258|  -11.670116|    2.437828|
|         325|  1.1198e+01|   -4.317598|   -4.580338|   -4.813357|   -4.549244|   -4.410157|  -11.667623|    2.429439|
|         326|  1.1196e+01|   -4.320040|   -4.584363|   -4.813562|   -4.549905|   -4.412058|  -11.665044|    2.420868|
|         327|  1.1193e+01|   -4.322411|   -4.588324|   -4.813830|   -4.550603|   -4.413975|  -11.662416|    2.412118|
|         328|  1.1190e+01|   -4.324719|   -4.592208|   -4.814110|   -4.551325|   -4.415878|  -11.659684|    2.403188|
|         329|  1.1187e+01|   -4.326961|   -4.596086|   -4.814353|   -4.552028|   -4.417744|  -11.656813|    2.394080|
|         330|  1.1184e+01|   -4.329131|   -4.599949|   -4.814582|   -4.552692|   -4.419588|  -11.653769|    2.384793|
|         331|  1.1181e+01|   -4.331212|   -4.603743|   -4.814790|   -4.553269|   -4.421379|  -11.650572|    2.375328|
|         332|  1.1178e+01|   -4.333206|   -4.607398|   -4.814974|   -4.553729|   -4.423098|  -11.647237|    2.365686|
|         333|  1.1174e+01|   -4.335153|   -4.610864|   -4.815185|   -4.554094|   -4.424789|  -11.643771|    2.355870|
|         334|  1.1172e+01|   -4.337065|   -4.614114|   -4.815416|   -4.554387|   -4.426467|  -11.640177|    2.345881|
|         335|  1.1168e+01|   -4.338940|   -4.617147|   -4.815678|   -4.554629|   -4.428146|  -11.636414|    2.335724|
|         336|  1.1166e+01|   -4.340751|   -4.619965|   -4.815945|   -4.554840|   -4.429815|  -11.632454|    2.325402|
|         337|  1.1163e+01|   -4.342446|   -4.622583|   -4.816200|   -4.555007|   -4.431425|  -11.628307|    2.314920|
|         338|  1.1160e+01|   -4.343977|   -4.624990|   -4.816431|   -4.555096|   -4.432928|  -11.623990|    2.304285|
|         339|  1.1157e+01|   -4.345346|   -4.627158|   -4.816662|   -4.555101|   -4.434309|  -11.619542|    2.293504|
|         340|  1.1155e+01|   -4.346588|   -4.629047|   -4.816905|   -4.555064|   -4.435605|  -11.615003|    2.282584|
|         341|  1.1152e+01|   -4.347750|   -4.630617|   -4.817131|   -4.555016|   -4.436862|  -11.610381|    2.271534|
|         342|  1.1150e+01|   -4.348870|   -4.631859|   -4.817338|   -4.554997|   -4.438132|  -11.605678|    2.260362|
|         343|  1.1147e+01|   -4.349945|   -4.632776|   -4.817534|   -4.554996|   -4.439420|  -11.600839|    2.249078|
|         344|  1.1144e+01|   -4.350943|   -4.633391|   -4.817736|   -4.554959|   -4.440688|  -11.595838|    2.237692|
|         345|  1.1141e+01|   -4.351818|   -4.633727|   -4.817915|   -4.554827|   -4.441879|  -11.590652|    2.226214|
|         346|  1.1138e+01|   -4.352537|   -4.633813|   -4.818061|   -4.554552|   -4.442950|  -11.585296|    2.214655|
|         347|  1.1135e+01|   -4.353098|   -4.633671|   -4.818181|   -4.554117|   -4.443876|  -11.579802|    2.203025|
|         348|  1.1132e+01|   -4.353526|   -4.633321|   -4.818270|   -4.553554|   -4.444672|  -11.574180|    2.191336|
|         349|  1.1128e+01|   -4.353886|   -4.632796|   -4.818329|   -4.552948|   -4.445415|  -11.568474|    2.179598|
|         350|  1.1126e+01|   -4.354233|   -4.632142|   -4.818391|   -4.552370|   -4.446172|  -11.562670|    2.167823|
|         351|  1.1123e+01|   -4.354608|   -4.631426|   -4.818458|   -4.551876|   -4.446994|  -11.556751|    2.156023|
|         352|  1.1119e+01|   -4.355007|   -4.630700|   -4.818538|   -4.551454|   -4.447872|  -11.550719|    2.144209|
|         353|  1.1117e+01|   -4.355410|   -4.630018|   -4.818607|   -4.551066|   -4.448772|  -11.544567|    2.132392|
|         354|  1.1114e+01|   -4.355786|   -4.629418|   -4.818660|   -4.550661|   -4.449637|  -11.538296|    2.120583|
|         355|  1.1112e+01|   -4.356133|   -4.628926|   -4.818709|   -4.550221|   -4.450450|  -11.531900|    2.108795|
|         356|  1.1109e+01|   -4.356488|   -4.628566|   -4.818779|   -4.549777|   -4.451252|  -11.525411|    2.097037|
|         357|  1.1107e+01|   -4.356887|   -4.628341|   -4.818861|   -4.549378|   -4.452079|  -11.518813|    2.085319|
|         358|  1.1104e+01|   -4.357371|   -4.628266|   -4.818959|   -4.549059|   -4.452969|  -11.512093|    2.073653|
|         359|  1.1101e+01|   -4.357943|   -4.628344|   -4.819095|   -4.548827|   -4.453930|  -11.505222|    2.062048|
|         360|  1.1099e+01|   -4.358615|   -4.628578|   -4.819295|   -4.548688|   -4.454979|  -11.498202|    2.050513|
|         361|  1.1097e+01|   -4.359401|   -4.629007|   -4.819567|   -4.548659|   -4.456129|  -11.491065|    2.039057|
|         362|  1.1094e+01|   -4.360276|   -4.629602|   -4.819932|   -4.548708|   -4.457348|  -11.483799|    2.027687|
|         363|  1.1092e+01|   -4.361188|   -4.630343|   -4.820370|   -4.548783|   -4.458573|  -11.476384|    2.016411|
|         364|  1.1090e+01|   -4.362112|   -4.631198|   -4.820873|   -4.548859|   -4.459776|  -11.468823|    2.005235|
|         365|  1.1088e+01|   -4.363024|   -4.632126|   -4.821426|   -4.548935|   -4.460932|  -11.461145|    1.994167|
|         366|  1.1085e+01|   -4.363918|   -4.633073|   -4.822007|   -4.549002|   -4.462029|  -11.453295|    1.983211|
|         367|  1.1083e+01|   -4.364808|   -4.633984|   -4.822636|   -4.549058|   -4.463076|  -11.445242|    1.972373|
|         368|  1.1080e+01|   -4.365693|   -4.634806|   -4.823313|   -4.549109|   -4.464069|  -11.437024|    1.961656|
|         369|  1.1078e+01|   -4.366558|   -4.635466|   -4.824034|   -4.549139|   -4.464991|  -11.428630|    1.951064|
|         370|  1.1075e+01|   -4.367421|   -4.635921|   -4.824834|   -4.549166|   -4.465872|  -11.420065|    1.940601|
|         371|  1.1073e+01|   -4.368268|   -4.636120|   -4.825712|   -4.549189|   -4.466710|  -11.411306|    1.930269|
|         372|  1.1070e+01|   -4.369060|   -4.636009|   -4.826631|   -4.549185|   -4.467468|  -11.402357|    1.920070|
|         373|  1.1068e+01|   -4.369766|   -4.635528|   -4.827576|   -4.549142|   -4.468118|  -11.393315|    1.910007|
|         374|  1.1066e+01|   -4.370362|   -4.634615|   -4.828530|   -4.549056|   -4.468644|  -11.384161|    1.900080|
|         375|  1.1064e+01|   -4.370815|   -4.633234|   -4.829474|   -4.548921|   -4.469029|  -11.374785|    1.890291|
|         376|  1.1061e+01|   -4.371090|   -4.631355|   -4.830410|   -4.548716|   -4.469252|  -11.365159|    1.880640|
|         377|  1.1059e+01|   -4.371145|   -4.628948|   -4.831317|   -4.548393|   -4.469279|  -11.355252|    1.871127|
|         378|  1.1057e+01|   -4.370940|   -4.625984|   -4.832176|   -4.547891|   -4.469065|  -11.345058|    1.861752|
|         379|  1.1054e+01|   -4.370449|   -4.622459|   -4.832966|   -4.547176|   -4.468594|  -11.334644|    1.852516|
|         380|  1.1052e+01|   -4.369667|   -4.618398|   -4.833668|   -4.546238|   -4.467875|  -11.324077|    1.843418|
|         381|  1.1050e+01|   -4.368589|   -4.613793|   -4.834248|   -4.545068|   -4.466908|  -11.313500|    1.834458|
|         382|  1.1047e+01|   -4.367215|   -4.608697|   -4.834705|   -4.543676|   -4.465708|  -11.302857|    1.825635|
|         383|  1.1045e+01|   -4.365545|   -4.603142|   -4.835020|   -4.542070|   -4.464285|  -11.292119|    1.816948|
|         384|  1.1043e+01|   -4.363593|   -4.597255|   -4.835215|   -4.540271|   -4.462669|  -11.281182|    1.808397|
|         385|  1.1040e+01|   -4.361362|   -4.591065|   -4.835297|   -4.538265|   -4.460849|  -11.270007|    1.799980|
|         386|  1.1038e+01|   -4.358883|   -4.584643|   -4.835258|   -4.536077|   -4.458853|  -11.258560|    1.791699|
|         387|  1.1036e+01|   -4.356215|   -4.578101|   -4.835100|   -4.533779|   -4.456735|  -11.246867|    1.783551|
|         388|  1.1033e+01|   -4.353373|   -4.571427|   -4.834803|   -4.531378|   -4.454487|  -11.235096|    1.775536|
|         389|  1.1031e+01|   -4.350418|   -4.564733|   -4.834389|   -4.528939|   -4.452179|  -11.223347|    1.767654|
|         390|  1.1028e+01|   -4.347385|   -4.558082|   -4.833866|   -4.526491|   -4.449847|  -11.211562|    1.759905|
|         391|  1.1024e+01|   -4.344355|   -4.551656|   -4.833267|   -4.524109|   -4.447582|  -11.199731|    1.752287|
|         392|  1.1019e+01|   -4.341363|   -4.545531|   -4.832619|   -4.521799|   -4.445409|  -11.187851|    1.744802|
|         393|  1.1015e+01|   -4.338439|   -4.539719|   -4.831931|   -4.519564|   -4.443337|  -11.176027|    1.737448|
|         394|  1.1011e+01|   -4.335623|   -4.534258|   -4.831233|   -4.517420|   -4.441384|  -11.164322|    1.730227|
|         395|  1.1007e+01|   -4.332965|   -4.529187|   -4.830543|   -4.515418|   -4.439580|  -11.152798|    1.723137|
|         396|  1.1003e+01|   -4.330513|   -4.524534|   -4.829890|   -4.513610|   -4.437970|  -11.141522|    1.716181|
|         397|  1.0998e+01|   -4.328292|   -4.520291|   -4.829284|   -4.512013|   -4.436566|  -11.130485|    1.709357|
|         398|  1.0995e+01|   -4.326324|   -4.516477|   -4.828752|   -4.510627|   -4.435378|  -11.119733|    1.702667|
|         399|  1.0990e+01|   -4.324626|   -4.513108|   -4.828322|   -4.509452|   -4.434419|  -11.109368|    1.696111|
|         400|  1.0986e+01|   -4.323268|   -4.510465|   -4.828080|   -4.508509|   -4.433781|  -11.099545|    1.689689|
|         401|  1.0982e+01|   -4.322231|   -4.508380|   -4.828005|   -4.507780|   -4.433417|  -11.090316|    1.683404|
|         402|  1.0979e+01|   -4.321476|   -4.506785|   -4.828103|   -4.507211|   -4.433284|  -11.081647|    1.677254|
|         403|  1.0975e+01|   -4.320969|   -4.505662|   -4.828385|   -4.506751|   -4.433349|  -11.073490|    1.671242|
|         404|  1.0971e+01|   -4.320680|   -4.504999|   -4.828870|   -4.506357|   -4.433584|  -11.065866|    1.665367|
|         405|  1.0968e+01|   -4.320574|   -4.504789|   -4.829543|   -4.505992|   -4.433957|  -11.058811|    1.659630|
|         406|  1.0964e+01|   -4.320614|   -4.505027|   -4.830395|   -4.505613|   -4.434433|  -11.052339|    1.654033|
|         407|  1.0960e+01|   -4.320767|   -4.505705|   -4.831403|   -4.505185|   -4.434982|  -11.046449|    1.648574|
|         408|  1.0957e+01|   -4.321009|   -4.506800|   -4.832549|   -4.504686|   -4.435589|  -11.041087|    1.643256|
|         409|  1.0953e+01|   -4.321327|   -4.508286|   -4.833817|   -4.504115|   -4.436247|  -11.036171|    1.638078|
|         410|  1.0950e+01|   -4.321706|   -4.510127|   -4.835188|   -4.503471|   -4.436950|  -11.031685|    1.633040|
|         411|  1.0946e+01|   -4.322127|   -4.512281|   -4.836646|   -4.502757|   -4.437690|  -11.027635|    1.628142|
|         412|  1.0942e+01|   -4.322577|   -4.514688|   -4.838164|   -4.501979|   -4.438462|  -11.023994|    1.623385|
|         413|  1.0939e+01|   -4.323046|   -4.517296|   -4.839710|   -4.501149|   -4.439259|  -11.020762|    1.618768|
|         414|  1.0935e+01|   -4.323480|   -4.520002|   -4.841259|   -4.500239|   -4.440037|  -11.017908|    1.614291|
|         415|  1.0932e+01|   -4.323818|   -4.522713|   -4.842773|   -4.499206|   -4.440740|  -11.015377|    1.609954|
|         416|  1.0928e+01|   -4.323999|   -4.525341|   -4.844209|   -4.498012|   -4.441312|  -11.013120|    1.605755|
|         417|  1.0925e+01|   -4.323957|   -4.527781|   -4.845514|   -4.496611|   -4.441689|  -11.011086|    1.601696|
|         418|  1.0921e+01|   -4.323640|   -4.529938|   -4.846645|   -4.494971|   -4.441822|  -11.009200|    1.597775|
|         419|  1.0918e+01|   -4.323011|   -4.531719|   -4.847562|   -4.493074|   -4.441676|  -11.007379|    1.593992|
|         420|  1.0915e+01|   -4.322051|   -4.533054|   -4.848246|   -4.490923|   -4.441229|  -11.005566|    1.590347|
|         421|  1.0911e+01|   -4.320758|   -4.533880|   -4.848684|   -4.488544|   -4.440485|  -11.003754|    1.586838|
|         422|  1.0907e+01|   -4.319128|   -4.534145|   -4.848872|   -4.485957|   -4.439446|  -11.001900|    1.583466|
|         423|  1.0904e+01|   -4.317152|   -4.533806|   -4.848814|   -4.483167|   -4.438105|  -10.999942|    1.580230|
|         424|  1.0902e+01|   -4.314839|   -4.532846|   -4.848519|   -4.480194|   -4.436470|  -10.997862|    1.577130|
|         425|  1.0900e+01|   -4.312195|   -4.531279|   -4.847992|   -4.477045|   -4.434544|  -10.995643|    1.574166|
|         426|  1.0898e+01|   -4.309218|   -4.529107|   -4.847236|   -4.473710|   -4.432319|  -10.993256|    1.571338|
|         427|  1.0897e+01|   -4.305921|   -4.526366|   -4.846260|   -4.470189|   -4.429798|  -10.990649|    1.568644|
|         428|  1.0895e+01|   -4.302328|   -4.523103|   -4.845074|   -4.466491|   -4.426999|  -10.987805|    1.566086|
|         429|  1.0894e+01|   -4.298462|   -4.519366|   -4.843679|   -4.462631|   -4.423944|  -10.984725|    1.563663|
|         430|  1.0892e+01|   -4.294353|   -4.515209|   -4.842087|   -4.458618|   -4.420652|  -10.981443|    1.561375|
|         431|  1.0891e+01|   -4.290035|   -4.510685|   -4.840300|   -4.454475|   -4.417157|  -10.977942|    1.559221|
|         432|  1.0889e+01|   -4.285539|   -4.505850|   -4.838317|   -4.450222|   -4.413486|  -10.974165|    1.557202|
|         433|  1.0888e+01|   -4.280896|   -4.500750|   -4.836154|   -4.445878|   -4.409670|  -10.970091|    1.555316|
|         434|  1.0886e+01|   -4.276131|   -4.495414|   -4.833838|   -4.441459|   -4.405731|  -10.965693|    1.553564|
|         435|  1.0885e+01|   -4.271258|   -4.489868|   -4.831381|   -4.436975|   -4.401683|  -10.960974|    1.551946|
|         436|  1.0883e+01|   -4.266282|   -4.484128|   -4.828800|   -4.432424|   -4.397527|  -10.955970|    1.550459|
|         437|  1.0881e+01|   -4.261219|   -4.478219|   -4.826117|   -4.427821|   -4.393277|  -10.950679|    1.549105|
|         438|  1.0880e+01|   -4.256077|   -4.472164|   -4.823341|   -4.423176|   -4.388940|  -10.945133|    1.547882|
|         439|  1.0878e+01|   -4.250886|   -4.465997|   -4.820490|   -4.418523|   -4.384544|  -10.939398|    1.546790|
|         440|  1.0876e+01|   -4.245642|   -4.459722|   -4.817578|   -4.413855|   -4.380082|  -10.933492|    1.545828|
|         441|  1.0875e+01|   -4.240329|   -4.453329|   -4.814604|   -4.409156|   -4.375539|  -10.927398|    1.544995|
|         442|  1.0873e+01|   -4.234959|   -4.446836|   -4.811581|   -4.404438|   -4.370925|  -10.921149|    1.544291|
|         443|  1.0872e+01|   -4.229536|   -4.440251|   -4.808517|   -4.399701|   -4.366244|  -10.914759|    1.543715|
|         444|  1.0870e+01|   -4.224075|   -4.433592|   -4.805415|   -4.394955|   -4.361506|  -10.908218|    1.543267|
|         445|  1.0868e+01|   -4.218580|   -4.426871|   -4.802270|   -4.390197|   -4.356713|  -10.901499|    1.542945|
|         446|  1.0866e+01|   -4.213102|   -4.420134|   -4.799082|   -4.385470|   -4.351910|  -10.894599|    1.542751|
|         447|  1.0865e+01|   -4.207635|   -4.413388|   -4.795861|   -4.380756|   -4.347087|  -10.887558|    1.542682|
|         448|  1.0863e+01|   -4.202201|   -4.406658|   -4.792602|   -4.376065|   -4.342260|  -10.880441|    1.542739|
|         449|  1.0862e+01|   -4.196832|   -4.399983|   -4.789298|   -4.371411|   -4.337447|  -10.873250|    1.542921|
|         450|  1.0860e+01|   -4.191544|   -4.393390|   -4.785965|   -4.366817|   -4.332674|  -10.866036|    1.543228|
+-----------------------------------------------------------------------+
|        File Writing Summary       |              Filename             |
+-----------------------------------------------------------------------+
|SU2 binary restart                 |restart_flow.dat                   |
|Paraview                           |flow.vtu                           |
|Paraview surface                   |surface_flow.vtu                   |
+-----------------------------------------------------------------------+
+--------------------------------------------------------------------------------------------------------------------+
|  Inner_Iter|   Time(sec)|    rms[Rho]|   rms[RhoU]|   rms[RhoV]|   rms[RhoW]|   rms[RhoE]|     rms[nu]|          CD|
+--------------------------------------------------------------------------------------------------------------------+
|         451|  1.0907e+01|   -4.186319|   -4.386872|   -4.782592|   -4.362253|   -4.327919|  -10.858847|    1.543659|
|         452|  1.0906e+01|   -4.181177|   -4.380459|   -4.779196|   -4.357744|   -4.323209|  -10.851658|    1.544213|
|         453|  1.0905e+01|   -4.176114|   -4.374147|   -4.775773|   -4.353286|   -4.318539|  -10.844440|    1.544890|
|         454|  1.0903e+01|   -4.171119|   -4.367932|   -4.772323|   -4.348869|   -4.313901|  -10.837177|    1.545688|
|         455|  1.0902e+01|   -4.166206|   -4.361826|   -4.768870|   -4.344518|   -4.309318|  -10.829901|    1.546608|
|         456|  1.0900e+01|   -4.161352|   -4.355811|   -4.765410|   -4.340209|   -4.304768|  -10.822658|    1.547647|
|         457|  1.0899e+01|   -4.156558|   -4.349886|   -4.761960|   -4.335949|   -4.300257|  -10.815458|    1.548805|
|         458|  1.0897e+01|   -4.151811|   -4.344042|   -4.758527|   -4.331723|   -4.295772|  -10.808322|    1.550081|
|         459|  1.0896e+01|   -4.147105|   -4.338273|   -4.755114|   -4.327529|   -4.291311|  -10.801243|    1.551473|
|         460|  1.0894e+01|   -4.142419|   -4.332561|   -4.751716|   -4.323346|   -4.286852|  -10.794166|    1.552980|
|         461|  1.0892e+01|   -4.137745|   -4.326895|   -4.748323|   -4.319172|   -4.282394|  -10.787027|    1.554601|
|         462|  1.0891e+01|   -4.133111|   -4.321300|   -4.744951|   -4.315044|   -4.277971|  -10.779776|    1.556334|
|         463|  1.0890e+01|   -4.128513|   -4.315768|   -4.741596|   -4.310962|   -4.273580|  -10.772406|    1.558178|
|         464|  1.0888e+01|   -4.123928|   -4.310278|   -4.738239|   -4.306893|   -4.269192|  -10.764975|    1.560131|
|         465|  1.0886e+01|   -4.119380|   -4.304851|   -4.734881|   -4.302857|   -4.264825|  -10.757504|    1.562193|
|         466|  1.0885e+01|   -4.114853|   -4.299474|   -4.731519|   -4.298838|   -4.260468|  -10.750033|    1.564361|
|         467|  1.0883e+01|   -4.110351|   -4.294149|   -4.728149|   -4.294834|   -4.256119|  -10.742540|    1.566636|
|         468|  1.0881e+01|   -4.105905|   -4.288903|   -4.724790|   -4.290867|   -4.251806|  -10.735065|    1.569015|
|         469|  1.0879e+01|   -4.101540|   -4.283759|   -4.721445|   -4.286968|   -4.247560|  -10.727596|    1.571498|
|         470|  1.0878e+01|   -4.097251|   -4.278711|   -4.718096|   -4.283135|   -4.243371|  -10.720123|    1.574084|
|         471|  1.0876e+01|   -4.093056|   -4.273771|   -4.714750|   -4.279386|   -4.239260|  -10.712636|    1.576772|
|         472|  1.0875e+01|   -4.088954|   -4.268944|   -4.711445|   -4.275720|   -4.235231|  -10.705141|    1.579560|
|         473|  1.0873e+01|   -4.084945|   -4.264222|   -4.708170|   -4.272140|   -4.231285|  -10.697610|    1.582449|
|         474|  1.0872e+01|   -4.081064|   -4.259629|   -4.704927|   -4.268701|   -4.227467|  -10.690015|    1.585436|
|         475|  1.0861e+01|   -4.077275|   -4.255140|   -4.701718|   -4.265350|   -4.223730|  -10.692414|    1.585531|
|         476|  1.0850e+01|   -4.077296|   -4.255125|   -4.701794|   -4.265409|   -4.223870|  -10.692030|    1.585645|
|         477|  1.0839e+01|   -4.077325|   -4.255116|   -4.701879|   -4.265483|   -4.224043|  -10.691569|    1.585782|
|         478|  1.0830e+01|   -4.077366|   -4.255116|   -4.701969|   -4.265575|   -4.224259|  -10.691017|    1.585948|
|         479|  1.0821e+01|   -4.077424|   -4.255134|   -4.702064|   -4.265690|   -4.224529|  -10.690355|    1.586147|
|         480|  1.0811e+01|   -4.077506|   -4.255179|   -4.702156|   -4.265836|   -4.224868|  -10.689563|    1.586388|
|         481|  1.0802e+01|   -4.077620|   -4.255263|   -4.702238|   -4.266018|   -4.225296|  -10.688615|    1.586678|
|         482|  1.0793e+01|   -4.077777|   -4.255403|   -4.702296|   -4.266246|   -4.225835|  -10.687482|    1.587029|
|         483|  1.0784e+01|   -4.077990|   -4.255624|   -4.702311|   -4.266531|   -4.226516|  -10.686128|    1.587453|
|         484|  1.0777e+01|   -4.078278|   -4.255955|   -4.702258|   -4.266885|   -4.227373|  -10.684513|    1.587968|
|         485|  1.0769e+01|   -4.078659|   -4.256428|   -4.702101|   -4.267318|   -4.228448|  -10.682587|    1.588593|
|         486|  1.0762e+01|   -4.079148|   -4.257079|   -4.701799|   -4.267841|   -4.229779|  -10.680294|    1.589352|
|         487|  1.0754e+01|   -4.079756|   -4.257932|   -4.701298|   -4.268450|   -4.231396|  -10.677568|    1.590277|
|         488|  1.0748e+01|   -4.080462|   -4.258980|   -4.700541|   -4.269118|   -4.233290|  -10.674317|    1.591405|
|         489|  1.0742e+01|   -4.081208|   -4.260158|   -4.699479|   -4.269781|   -4.235391|  -10.670460|    1.592782|
|         490|  1.0738e+01|   -4.081852|   -4.261289|   -4.698080|   -4.270301|   -4.237506|  -10.665915|    1.594467|
|         491|  1.0734e+01|   -4.082127|   -4.262013|   -4.696323|   -4.270440|   -4.239239|  -10.660555|    1.596530|
|         492|  1.0731e+01|   -4.081600|   -4.261730|   -4.694216|   -4.269821|   -4.239929|  -10.654259|    1.599063|
|         493|  1.0728e+01|   -4.079711|   -4.259634|   -4.691816|   -4.267973|   -4.238670|  -10.646910|    1.602179|
|         494|  1.0727e+01|   -4.075835|   -4.254821|   -4.689187|   -4.264370|   -4.234410|  -10.639014|    1.605780|
|         495|  1.0726e+01|   -4.070100|   -4.247386|   -4.686623|   -4.259185|   -4.227144|  -10.631554|    1.609463|
|         496|  1.0724e+01|   -4.063946|   -4.239231|   -4.684640|   -4.253753|   -4.218905|  -10.624074|    1.613226|
|         497|  1.0723e+01|   -4.057954|   -4.231237|   -4.682947|   -4.248528|   -4.210657|  -10.616553|    1.617073|
|         498|  1.0722e+01|   -4.052545|   -4.224022|   -4.681311|   -4.243849|   -4.203115|  -10.608982|    1.621002|
|         499|  1.0721e+01|   -4.047923|   -4.217900|   -4.679539|   -4.239862|   -4.196656|  -10.601358|    1.625013|
|         500|  1.0720e+01|   -4.044123|   -4.212935|   -4.677523|   -4.236589|   -4.191404|  -10.593711|    1.629106|
|         501|  1.0718e+01|   -4.041048|   -4.209013|   -4.675224|   -4.233926|   -4.187271|  -10.586066|    1.633277|
|         502|  1.0717e+01|   -4.038524|   -4.205910|   -4.672655|   -4.231713|   -4.184050|  -10.578421|    1.637525|
|         503|  1.0717e+01|   -4.036395|   -4.203392|   -4.669917|   -4.229839|   -4.181537|  -10.570773|    1.641849|
|         504|  1.0715e+01|   -4.034487|   -4.201207|   -4.667089|   -4.228161|   -4.179482|  -10.563104|    1.646245|
|         505|  1.0714e+01|   -4.032664|   -4.199156|   -4.664301|   -4.226548|   -4.177667|  -10.555394|    1.650711|
|         506|  1.0713e+01|   -4.030832|   -4.197087|   -4.661614|   -4.224931|   -4.175932|  -10.547646|    1.655247|
|         507|  1.0711e+01|   -4.028918|   -4.194890|   -4.659018|   -4.223242|   -4.174132|  -10.539871|    1.659848|
|         508|  1.0710e+01|   -4.026929|   -4.192550|   -4.656571|   -4.221494|   -4.172238|  -10.532085|    1.664513|
|         509|  1.0709e+01|   -4.024902|   -4.190093|   -4.654272|   -4.219719|   -4.170253|  -10.524280|    1.669241|
|         510|  1.0707e+01|   -4.022880|   -4.187562|   -4.652124|   -4.217941|   -4.168201|  -10.516499|    1.674028|
|         511|  1.0706e+01|   -4.020898|   -4.184992|   -4.650106|   -4.216211|   -4.166126|  -10.508779|    1.678872|
|         512|  1.0705e+01|   -4.018950|   -4.182402|   -4.648190|   -4.214513|   -4.164030|  -10.501151|    1.683772|
|         513|  1.0704e+01|   -4.017072|   -4.179831|   -4.646361|   -4.212887|   -4.161959|  -10.493662|    1.688726|
|         514|  1.0703e+01|   -4.015265|   -4.177294|   -4.644603|   -4.211342|   -4.159928|  -10.486311|    1.693731|
|         515|  1.0702e+01|   -4.013525|   -4.174797|   -4.642902|   -4.209879|   -4.157948|  -10.479094|    1.698784|
|         516|  1.0700e+01|   -4.011836|   -4.172330|   -4.641236|   -4.208487|   -4.156007|  -10.472006|    1.703885|
|         517|  1.0699e+01|   -4.010211|   -4.169909|   -4.639632|   -4.207184|   -4.154128|  -10.464989|    1.709032|
|         518|  1.0698e+01|   -4.008618|   -4.167519|   -4.638070|   -4.205928|   -4.152273|  -10.458020|    1.714221|
|         519|  1.0697e+01|   -4.007036|   -4.165136|   -4.636558|   -4.204703|   -4.150427|  -10.451051|    1.719451|
|         520|  1.0696e+01|   -4.005462|   -4.162753|   -4.635093|   -4.203509|   -4.148585|  -10.444058|    1.724721|
|         521|  1.0694e+01|   -4.003882|   -4.160360|   -4.633658|   -4.202332|   -4.146735|  -10.437041|    1.730027|
|         522|  1.0693e+01|   -4.002289|   -4.157953|   -4.632263|   -4.201158|   -4.144868|  -10.429992|    1.735369|
|         523|  1.0692e+01|   -4.000703|   -4.155547|   -4.630918|   -4.200006|   -4.143004|  -10.422915|    1.740744|
|         524|  1.0691e+01|   -3.999160|   -4.153164|   -4.629625|   -4.198926|   -4.141186|  -10.415807|    1.746151|
|         525|  1.0690e+01|   -3.997626|   -4.150792|   -4.628370|   -4.197864|   -4.139374|  -10.408673|    1.751588|
|         526|  1.0689e+01|   -3.996148|   -4.148467|   -4.627171|   -4.196870|   -4.137614|  -10.401496|    1.757052|
|         527|  1.0688e+01|   -3.994788|   -4.146227|   -4.626053|   -4.196007|   -4.135961|  -10.394290|    1.762541|
|         528|  1.0686e+01|   -3.993535|   -4.144082|   -4.625033|   -4.195254|   -4.134410|  -10.387084|    1.768055|
|         529|  1.0685e+01|   -3.992361|   -4.142020|   -4.624133|   -4.194581|   -4.132939|  -10.379884|    1.773590|
|         530|  1.0684e+01|   -3.991290|   -4.140062|   -4.623338|   -4.194011|   -4.131568|  -10.372680|    1.779144|
|         531|  1.0683e+01|   -3.990314|   -4.138213|   -4.622653|   -4.193518|   -4.130289|  -10.365454|    1.784715|
|         532|  1.0682e+01|   -3.989429|   -4.136475|   -4.622096|   -4.193085|   -4.129095|  -10.358212|    1.790300|
|         533|  1.0681e+01|   -3.988661|   -4.134872|   -4.621665|   -4.192729|   -4.128010|  -10.350956|    1.795897|
|         534|  1.0679e+01|   -3.988020|   -4.133417|   -4.621388|   -4.192471|   -4.127052|  -10.343711|    1.801502|
|         535|  1.0676e+01|   -3.987499|   -4.132103|   -4.621230|   -4.192318|   -4.126219|  -10.336479|    1.807113|
|         536|  1.0674e+01|   -3.987137|   -4.130963|   -4.621232|   -4.192300|   -4.125547|  -10.329257|    1.812727|
|         537|  1.0671e+01|   -3.986951|   -4.130008|   -4.621378|   -4.192437|   -4.125051|  -10.322069|    1.818340|
|         538|  1.0669e+01|   -3.986869|   -4.129200|   -4.621619|   -4.192637|   -4.124651|  -10.314917|    1.823950|
[...]
|        2925|  1.0128e+01|   -6.241379|   -6.433510|   -6.780362|   -6.437312|   -6.380389|   -8.239582|    1.881704|
|        2926|  1.0128e+01|   -6.239899|   -6.433833|   -6.779898|   -6.437169|   -6.380396|   -8.243444|    1.881712|
|        2927|  1.0128e+01|   -6.238263|   -6.433923|   -6.779494|   -6.436879|   -6.380249|   -8.247390|    1.881717|
|        2928|  1.0128e+01|   -6.236479|   -6.433778|   -6.779152|   -6.436442|   -6.379947|   -8.251415|    1.881720|
|        2929|  1.0128e+01|   -6.234557|   -6.433399|   -6.778871|   -6.435862|   -6.379494|   -8.255514|    1.881721|
|        2930|  1.0128e+01|   -6.232506|   -6.432788|   -6.778652|   -6.435140|   -6.378890|   -8.259681|    1.881719|
|        2931|  1.0128e+01|   -6.230337|   -6.431950|   -6.778497|   -6.434281|   -6.378141|   -8.263910|    1.881715|
|        2932|  1.0128e+01|   -6.228061|   -6.430887|   -6.778406|   -6.433290|   -6.377251|   -8.268195|    1.881708|
|        2933|  1.0128e+01|   -6.225687|   -6.429607|   -6.778377|   -6.432169|   -6.376221|   -8.272529|    1.881699|
|        2934|  1.0128e+01|   -6.223226|   -6.428116|   -6.778414|   -6.430926|   -6.375060|   -8.276904|    1.881687|
|        2935|  1.0128e+01|   -6.220690|   -6.426423|   -6.778515|   -6.429566|   -6.373772|   -8.281314|    1.881674|
|        2936|  1.0128e+01|   -6.218089|   -6.424538|   -6.778680|   -6.428095|   -6.372365|   -8.285751|    1.881658|
|        2937|  1.0128e+01|   -6.215434|   -6.422470|   -6.778911|   -6.426520|   -6.370845|   -8.290206|    1.881639|
|        2938|  1.0128e+01|   -6.212734|   -6.420231|   -6.779206|   -6.424848|   -6.369218|   -8.294670|    1.881619|
|        2939|  1.0128e+01|   -6.209999|   -6.417831|   -6.779565|   -6.423085|   -6.367492|   -8.299135|    1.881596|
|        2940|  1.0128e+01|   -6.207241|   -6.415282|   -6.779988|   -6.421241|   -6.365675|   -8.303591|    1.881571|
|        2941|  1.0128e+01|   -6.204468|   -6.412598|   -6.780474|   -6.419322|   -6.363775|   -8.308030|    1.881544|
|        2942|  1.0128e+01|   -6.201691|   -6.409791|   -6.781021|   -6.417337|   -6.361801|   -8.312441|    1.881514|
|        2943|  1.0128e+01|   -6.198918|   -6.406873|   -6.781629|   -6.415292|   -6.359760|   -8.316813|    1.881483|
|        2944|  1.0127e+01|   -6.196157|   -6.403856|   -6.782297|   -6.413196|   -6.357660|   -8.321138|    1.881449|
|        2945|  1.0127e+01|   -6.193418|   -6.400754|   -6.783023|   -6.411056|   -6.355510|   -8.325404|    1.881413|
|        2946|  1.0127e+01|   -6.190708|   -6.397579|   -6.783805|   -6.408881|   -6.353318|   -8.329602|    1.881376|
|        2947|  1.0127e+01|   -6.188034|   -6.394345|   -6.784641|   -6.406677|   -6.351092|   -8.333719|    1.881336|
|        2948|  1.0127e+01|   -6.185405|   -6.391063|   -6.785530|   -6.404453|   -6.348841|   -8.337747|    1.881295|
|        2949|  1.0127e+01|   -6.182828|   -6.387746|   -6.786470|   -6.402217|   -6.346574|   -8.341676|    1.881251|
|        2950|  1.0127e+01|   -6.180309|   -6.384404|   -6.787458|   -6.399975|   -6.344297|   -8.345494|    1.881206|
|        2951|  1.0127e+01|   -6.177853|   -6.381049|   -6.788491|   -6.397734|   -6.342017|   -8.349192|    1.881159|
|        2952|  1.0127e+01|   -6.175464|   -6.377690|   -6.789567|   -6.395500|   -6.339741|   -8.352761|    1.881110|
|        2953|  1.0127e+01|   -6.173148|   -6.374337|   -6.790682|   -6.393279|   -6.337474|   -8.356193|    1.881059|
|        2954|  1.0127e+01|   -6.170910|   -6.371000|   -6.791835|   -6.391078|   -6.335226|   -8.359479|    1.881007|
|        2955|  1.0127e+01|   -6.168754|   -6.367687|   -6.793023|   -6.388903|   -6.333001|   -8.362612|    1.880953|
|        2956|  1.0127e+01|   -6.166685|   -6.364407|   -6.794241|   -6.386759|   -6.330805|   -8.365584|    1.880898|
|        2957|  1.0127e+01|   -6.164706|   -6.361168|   -6.795488|   -6.384654|   -6.328645|   -8.368391|    1.880841|
|        2958|  1.0127e+01|   -6.162821|   -6.357978|   -6.796760|   -6.382590|   -6.326527|   -8.371026|    1.880783|
|        2959|  1.0127e+01|   -6.161033|   -6.354843|   -6.798053|   -6.380574|   -6.324454|   -8.373487|    1.880723|
|        2960|  1.0127e+01|   -6.159346|   -6.351772|   -6.799363|   -6.378610|   -6.322434|   -8.375770|    1.880662|
|        2961|  1.0127e+01|   -6.157762|   -6.348769|   -6.800688|   -6.376703|   -6.320469|   -8.377874|    1.880599|
|        2962|  1.0127e+01|   -6.156284|   -6.345840|   -6.802023|   -6.374856|   -6.318564|   -8.379797|    1.880536|
|        2963|  1.0127e+01|   -6.154915|   -6.342993|   -6.803366|   -6.373075|   -6.316725|   -8.381541|    1.880471|
|        2964|  1.0127e+01|   -6.153655|   -6.340230|   -6.804711|   -6.371362|   -6.314953|   -8.383107|    1.880405|
|        2965|  1.0127e+01|   -6.152506|   -6.337558|   -6.806054|   -6.369720|   -6.313253|   -8.384497|    1.880338|
|        2966|  1.0127e+01|   -6.151471|   -6.334980|   -6.807394|   -6.368154|   -6.311628|   -8.385715|    1.880269|
|        2967|  1.0126e+01|   -6.150550|   -6.332501|   -6.808725|   -6.366667|   -6.310082|   -8.386767|    1.880200|
|        2968|  1.0126e+01|   -6.149746|   -6.330124|   -6.810042|   -6.365261|   -6.308618|   -8.387657|    1.880130|
|        2969|  1.0126e+01|   -6.149059|   -6.327853|   -6.811341|   -6.363938|   -6.307237|   -8.388392|    1.880059|
|        2970|  1.0125e+01|   -6.148489|   -6.325689|   -6.812617|   -6.362699|   -6.305942|   -8.388980|    1.879988|
|        2971|  1.0125e+01|   -6.148038|   -6.323638|   -6.813868|   -6.361548|   -6.304737|   -8.389429|    1.879915|
|        2972|  1.0125e+01|   -6.147706|   -6.321700|   -6.815090|   -6.360487|   -6.303622|   -8.389748|    1.879842|
|        2973|  1.0125e+01|   -6.147495|   -6.319878|   -6.816279|   -6.359518|   -6.302601|   -8.389946|    1.879768|
|        2974|  1.0124e+01|   -6.147406|   -6.318176|   -6.817433|   -6.358643|   -6.301677|   -8.390034|    1.879694|
|        2975|  1.0124e+01|   -6.147437|   -6.316596|   -6.818551|   -6.357863|   -6.300850|   -8.390021|    1.879619|
|        2976|  1.0124e+01|   -6.147589|   -6.315138|   -6.819627|   -6.357178|   -6.300121|   -8.389920|    1.879544|
|        2977|  1.0124e+01|   -6.147861|   -6.313804|   -6.820660|   -6.356591|   -6.299493|   -8.389740|    1.879468|
|        2978|  1.0123e+01|   -6.148255|   -6.312596|   -6.821646|   -6.356103|   -6.298965|   -8.389494|    1.879392|
|        2979|  1.0123e+01|   -6.148768|   -6.311515|   -6.822584|   -6.355714|   -6.298540|   -8.389192|    1.879315|
|        2980|  1.0123e+01|   -6.149402|   -6.310563|   -6.823472|   -6.355425|   -6.298217|   -8.388847|    1.879239|
|        2981|  1.0123e+01|   -6.150155|   -6.309740|   -6.824307|   -6.355238|   -6.297999|   -8.388468|    1.879162|
|        2982|  1.0122e+01|   -6.151026|   -6.309047|   -6.825086|   -6.355152|   -6.297884|   -8.388067|    1.879085|
|        2983|  1.0122e+01|   -6.152017|   -6.308486|   -6.825811|   -6.355169|   -6.297876|   -8.387655|    1.879008|
|        2984|  1.0122e+01|   -6.153126|   -6.308057|   -6.826477|   -6.355290|   -6.297975|   -8.387241|    1.878931|
|        2985|  1.0122e+01|   -6.154352|   -6.307762|   -6.827085|   -6.355515|   -6.298180|   -8.386836|    1.878854|
|        2986|  1.0121e+01|   -6.155696|   -6.307602|   -6.827635|   -6.355845|   -6.298493|   -8.386450|    1.878778|
|        2987|  1.0121e+01|   -6.157154|   -6.307575|   -6.828124|   -6.356279|   -6.298914|   -8.386090|    1.878701|
|        2988|  1.0121e+01|   -6.158726|   -6.307683|   -6.828555|   -6.356818|   -6.299442|   -8.385764|    1.878625|
|        2989|  1.0121e+01|   -6.160409|   -6.307924|   -6.828927|   -6.357462|   -6.300077|   -8.385481|    1.878548|
|        2990|  1.0121e+01|   -6.162201|   -6.308298|   -6.829240|   -6.358208|   -6.300817|   -8.385247|    1.878473|
|        2991|  1.0121e+01|   -6.164100|   -6.308805|   -6.829496|   -6.359057|   -6.301662|   -8.385071|    1.878397|
|        2992|  1.0121e+01|   -6.166103|   -6.309444|   -6.829696|   -6.360005|   -6.302610|   -8.384962|    1.878322|
|        2993|  1.0121e+01|   -6.168208|   -6.310215|   -6.829843|   -6.361054|   -6.303663|   -8.384927|    1.878248|
|        2994|  1.0121e+01|   -6.170413|   -6.311118|   -6.829938|   -6.362202|   -6.304818|   -8.384975|    1.878174|
|        2995|  1.0121e+01|   -6.172713|   -6.312151|   -6.829980|   -6.363446|   -6.306073|   -8.385111|    1.878101|
|        2996|  1.0121e+01|   -6.175105|   -6.313313|   -6.829972|   -6.364785|   -6.307427|   -8.385342|    1.878028|
|        2997|  1.0121e+01|   -6.177585|   -6.314603|   -6.829917|   -6.366218|   -6.308878|   -8.385677|    1.877956|
|        2998|  1.0121e+01|   -6.180150|   -6.316020|   -6.829816|   -6.367741|   -6.310424|   -8.386120|    1.877885|
|        2999|  1.0121e+01|   -6.182795|   -6.317563|   -6.829673|   -6.369354|   -6.312064|   -8.386673|    1.877814|
|        3000|  1.0121e+01|   -6.185516|   -6.319229|   -6.829491|   -6.371054|   -6.313795|   -8.387339|    1.877745|
+-----------------------------------------------------------------------+
|        File Writing Summary       |              Filename             |
+-----------------------------------------------------------------------+
|SU2 binary restart                 |restart_flow.dat                   |
|Paraview                           |flow.vtu                           |
|Paraview surface                   |surface_flow.vtu                   |
+-----------------------------------------------------------------------+
+--------------------------------------------------------------------------------------------------------------------+
|  Inner_Iter|   Time(sec)|    rms[Rho]|   rms[RhoU]|   rms[RhoV]|   rms[RhoW]|   rms[RhoE]|     rms[nu]|          CD|
+--------------------------------------------------------------------------------------------------------------------+
|        3001|  1.0129e+01|   -6.188310|   -6.321016|   -6.829272|   -6.372839|   -6.315616|   -8.388123|    1.877676|
|        3002|  1.0129e+01|   -6.191169|   -6.322923|   -6.829019|   -6.374705|   -6.317522|   -8.389034|    1.877608|
|        3003|  1.0128e+01|   -6.194090|   -6.324948|   -6.828737|   -6.376649|   -6.319512|   -8.390066|    1.877542|
|        3004|  1.0128e+01|   -6.197067|   -6.327088|   -6.828428|   -6.378671|   -6.321584|   -8.391224|    1.877476|
|        3005|  1.0128e+01|   -6.200094|   -6.329342|   -6.828095|   -6.380765|   -6.323733|   -8.392509|    1.877411|
|        3006|  1.0128e+01|   -6.203165|   -6.331706|   -6.827742|   -6.382928|   -6.325957|   -8.393923|    1.877348|
|        3007|  1.0128e+01|   -6.206274|   -6.334178|   -6.827372|   -6.385158|   -6.328253|   -8.395467|    1.877285|
|        3008|  1.0128e+01|   -6.209415|   -6.336755|   -6.826989|   -6.387451|   -6.330618|   -8.397142|    1.877224|
|        3009|  1.0128e+01|   -6.212581|   -6.339433|   -6.826595|   -6.389802|   -6.333047|   -8.398950|    1.877164|
|        3010|  1.0128e+01|   -6.215781|   -6.342224|   -6.826194|   -6.392226|   -6.335553|   -8.400889|    1.877106|
|        3011|  1.0128e+01|   -6.218989|   -6.345107|   -6.825792|   -6.394699|   -6.338114|   -8.402960|    1.877048|
|        3012|  1.0128e+01|   -6.222196|   -6.348078|   -6.825392|   -6.397214|   -6.340723|   -8.405161|    1.876992|
|        3013|  1.0128e+01|   -6.225394|   -6.351132|   -6.824997|   -6.399767|   -6.343377|   -8.407492|    1.876938|
|        3014|  1.0128e+01|   -6.228575|   -6.354266|   -6.824609|   -6.402354|   -6.346071|   -8.409950|    1.876885|
|        3015|  1.0128e+01|   -6.231731|   -6.357473|   -6.824232|   -6.404970|   -6.348800|   -8.412533|    1.876833|
|        3016|  1.0128e+01|   -6.234852|   -6.360751|   -6.823869|   -6.407609|   -6.351558|   -8.415239|    1.876783|
|        3017|  1.0128e+01|   -6.237930|   -6.364093|   -6.823523|   -6.410266|   -6.354340|   -8.418064|    1.876734|
|        3018|  1.0128e+01|   -6.240956|   -6.367492|   -6.823197|   -6.412935|   -6.357141|   -8.421004|    1.876687|
|        3019|  1.0128e+01|   -6.243921|   -6.370944|   -6.822893|   -6.415611|   -6.359954|   -8.424054|    1.876641|
|        3020|  1.0128e+01|   -6.246815|   -6.374440|   -6.822617|   -6.418286|   -6.362774|   -8.427208|    1.876597|
|        3021|  1.0128e+01|   -6.249628|   -6.377972|   -6.822368|   -6.420954|   -6.365592|   -8.430460|    1.876555|
|        3022|  1.0128e+01|   -6.252351|   -6.381533|   -6.822150|   -6.423607|   -6.368402|   -8.433803|    1.876514|
|        3023|  1.0128e+01|   -6.254975|   -6.385113|   -6.821967|   -6.426241|   -6.371197|   -8.437228|    1.876474|
|        3024|  1.0128e+01|   -6.257490|   -6.388705|   -6.821821|   -6.428846|   -6.373968|   -8.440726|    1.876437|
|        3025|  1.0128e+01|   -6.259887|   -6.392298|   -6.821716|   -6.431415|   -6.376708|   -8.444287|    1.876401|
|        3026|  1.0128e+01|   -6.262158|   -6.395883|   -6.821653|   -6.433941|   -6.379409|   -8.447900|    1.876367|
|        3027|  1.0128e+01|   -6.264297|   -6.399452|   -6.821636|   -6.436419|   -6.382066|   -8.451551|    1.876334|
|        3028|  1.0127e+01|   -6.266296|   -6.402993|   -6.821665|   -6.438840|   -6.384669|   -8.455227|    1.876303|
|        3029|  1.0127e+01|   -6.268149|   -6.406499|   -6.821745|   -6.441199|   -6.387213|   -8.458951|    1.876274|
|        3030|  1.0127e+01|   -6.269850|   -6.409957|   -6.821875|   -6.443490|   -6.389691|   -8.462697|    1.876247|
|        3031|  1.0127e+01|   -6.271395|   -6.413359|   -6.822059|   -6.445705|   -6.392095|   -8.466407|    1.876221|
|        3032|  1.0127e+01|   -6.272779|   -6.416693|   -6.822298|   -6.447839|   -6.394420|   -8.470065|    1.876198|
|        3033|  1.0127e+01|   -6.273999|   -6.419949|   -6.822594|   -6.449886|   -6.396657|   -8.473651|    1.876176|
|        3034|  1.0127e+01|   -6.275052|   -6.423115|   -6.822947|   -6.451839|   -6.398800|   -8.477146|    1.876155|
|        3035|  1.0127e+01|   -6.275934|   -6.426179|   -6.823360|   -6.453692|   -6.400841|   -8.480528|    1.876137|
|        3036|  1.0127e+01|   -6.276647|   -6.429131|   -6.823833|   -6.455440|   -6.402777|   -8.483775|    1.876120|
|        3037|  1.0127e+01|   -6.277188|   -6.431960|   -6.824368|   -6.457079|   -6.404600|   -8.486865|    1.876105|
|        3038|  1.0127e+01|   -6.277558|   -6.434654|   -6.824965|   -6.458602|   -6.406304|   -8.489774|    1.876092|
|        3039|  1.0127e+01|   -6.277757|   -6.437201|   -6.825625|   -6.460005|   -6.407883|   -8.492478|    1.876080|
|        3040|  1.0127e+01|   -6.277788|   -6.439594|   -6.826348|   -6.461285|   -6.409334|   -8.494953|    1.876071|
|        3041|  1.0127e+01|   -6.277656|   -6.441822|   -6.827136|   -6.462438|   -6.410653|   -8.497175|    1.876063|
|        3042|  1.0127e+01|   -6.277363|   -6.443877|   -6.827986|   -6.463462|   -6.411836|   -8.499120|    1.876057|
|        3043|  1.0127e+01|   -6.276915|   -6.445751|   -6.828900|   -6.464355|   -6.412882|   -8.500765|    1.876052|
|        3044|  1.0127e+01|   -6.276318|   -6.447437|   -6.829878|   -6.465115|   -6.413788|   -8.502089|    1.876049|
|        3045|  1.0127e+01|   -6.275578|   -6.448929|   -6.830919|   -6.465743|   -6.414553|   -8.503072|    1.876048|
|        3046|  1.0127e+01|   -6.274703|   -6.450223|   -6.832023|   -6.466238|   -6.415177|   -8.503694|    1.876049|
|        3047|  1.0127e+01|   -6.273700|   -6.451314|   -6.833189|   -6.466601|   -6.415661|   -8.503941|    1.876052|
|        3048|  1.0127e+01|   -6.272576|   -6.452199|   -6.834415|   -6.466833|   -6.416004|   -8.503798|    1.876056|
|        3049|  1.0127e+01|   -6.271341|   -6.452877|   -6.835702|   -6.466936|   -6.416208|   -8.503255|    1.876062|
|        3050|  1.0127e+01|   -6.270005|   -6.453348|   -6.837048|   -6.466914|   -6.416277|   -8.502304|    1.876069|
|        3051|  1.0127e+01|   -6.268574|   -6.453612|   -6.838454|   -6.466768|   -6.416212|   -8.500941|    1.876078|
|        3052|  1.0127e+01|   -6.267059|   -6.453671|   -6.839917|   -6.466501|   -6.416017|   -8.499165|    1.876089|
|        3053|  1.0127e+01|   -6.265467|   -6.453528|   -6.841436|   -6.466118|   -6.415695|   -8.496978|    1.876101|
|        3054|  1.0127e+01|   -6.263810|   -6.453188|   -6.843011|   -6.465624|   -6.415252|   -8.494388|    1.876115|
|        3055|  1.0127e+01|   -6.262095|   -6.452655|   -6.844639|   -6.465022|   -6.414693|   -8.491403|    1.876131|
|        3056|  1.0127e+01|   -6.260333|   -6.451936|   -6.846319|   -6.464321|   -6.414024|   -8.488035|    1.876148|
|        3057|  1.0126e+01|   -6.258532|   -6.451037|   -6.848049|   -6.463525|   -6.413249|   -8.484300|    1.876166|
|        3058|  1.0126e+01|   -6.256701|   -6.449967|   -6.849826|   -6.462638|   -6.412375|   -8.480216|    1.876186|
|        3059|  1.0126e+01|   -6.254847|   -6.448733|   -6.851648|   -6.461668|   -6.411409|   -8.475802|    1.876208|
|        3060|  1.0126e+01|   -6.252980|   -6.447346|   -6.853511|   -6.460621|   -6.410356|   -8.471080|    1.876231|
|        3061|  1.0126e+01|   -6.251108|   -6.445815|   -6.855414|   -6.459505|   -6.409225|   -8.466073|    1.876255|
|        3062|  1.0126e+01|   -6.249238|   -6.444149|   -6.857354|   -6.458324|   -6.408022|   -8.460805|    1.876281|
|        3063|  1.0126e+01|   -6.247377|   -6.442358|   -6.859328|   -6.457086|   -6.406753|   -8.455300|    1.876308|
|        3064|  1.0126e+01|   -6.245533|   -6.440454|   -6.861333|   -6.455796|   -6.405426|   -8.449582|    1.876336|
|        3065|  1.0126e+01|   -6.243713|   -6.438446|   -6.863365|   -6.454463|   -6.404048|   -8.443677|    1.876366|
|        3066|  1.0126e+01|   -6.241922|   -6.436346|   -6.865418|   -6.453091|   -6.402626|   -8.437608|    1.876396|
|        3067|  1.0126e+01|   -6.240167|   -6.434165|   -6.867490|   -6.451688|   -6.401167|   -8.431400|    1.876429|
|        3068|  1.0126e+01|   -6.238454|   -6.431914|   -6.869576|   -6.450260|   -6.399679|   -8.425075|    1.876462|
|        3069|  1.0126e+01|   -6.236790|   -6.429603|   -6.871673|   -6.448814|   -6.398169|   -8.418656|    1.876496|
|        3070|  1.0126e+01|   -6.235177|   -6.427242|   -6.873774|   -6.447356|   -6.396641|   -8.412164|    1.876532|
|        3071|  1.0126e+01|   -6.233621|   -6.424842|   -6.875876|   -6.445891|   -6.395103|   -8.405618|    1.876568|
|        3072|  1.0126e+01|   -6.232127|   -6.422412|   -6.877972|   -6.444424|   -6.393560|   -8.399039|    1.876606|
|        3073|  1.0126e+01|   -6.230697|   -6.419961|   -6.880060|   -6.442963|   -6.392019|   -8.392443|    1.876645|
|        3074|  1.0126e+01|   -6.229337|   -6.417500|   -6.882132|   -6.441512|   -6.390486|   -8.385848|    1.876684|
|        3075|  1.0126e+01|   -6.228051|   -6.415036|   -6.884186|   -6.440076|   -6.388966|   -8.379269|    1.876725|
|        3076|  1.0126e+01|   -6.226842|   -6.412580|   -6.886215|   -6.438662|   -6.387466|   -8.372721|    1.876767|
|        3077|  1.0126e+01|   -6.225712|   -6.410138|   -6.888214|   -6.437273|   -6.385990|   -8.366216|    1.876809|
|        3078|  1.0126e+01|   -6.224666|   -6.407718|   -6.890178|   -6.435914|   -6.384544|   -8.359767|    1.876852|
|        3079|  1.0126e+01|   -6.223705|   -6.405328|   -6.892102|   -6.434590|   -6.383131|   -8.353385|    1.876896|
|        3080|  1.0126e+01|   -6.222832|   -6.402975|   -6.893982|   -6.433305|   -6.381757|   -8.347081|    1.876941|
|        3081|  1.0126e+01|   -6.222049|   -6.400665|   -6.895811|   -6.432063|   -6.380426|   -8.340863|    1.876986|
|        3082|  1.0126e+01|   -6.221359|   -6.398404|   -6.897586|   -6.430867|   -6.379141|   -8.334741|    1.877032|
|        3083|  1.0126e+01|   -6.220762|   -6.396198|   -6.899302|   -6.429720|   -6.377907|   -8.328721|    1.877079|
|        3084|  1.0126e+01|   -6.220231|   -6.394028|   -6.900948|   -6.428595|   -6.376701|   -8.322812|    1.877126|
