Nodes:  tri[0835-0836]
Tasks:  128
NPN:    64
Config: /scratch/anthonyy/reentry/orion/config/generated/m1.5_aoa0.cfg

-------------------------------------------------------------------------
|    ___ _   _ ___                                                      |
|   / __| | | |_  )   Release 7.5.1 "Blackbird"                         |
|   \__ \ |_| |/ /                                                      |
|   |___/\___//___|   Suite (Computational Fluid Dynamics Code)         |
|                                                                       |
-------------------------------------------------------------------------
| SU2 Project Website: https://su2code.github.io                        |
|                                                                       |
| The SU2 Project is maintained by the SU2 Foundation                   |
| (http://su2foundation.org)                                            |
-------------------------------------------------------------------------
| Copyright 2012-2023, SU2 Contributors                                 |
|                                                                       |
| SU2 is free software; you can redistribute it and/or                  |
| modify it under the terms of the GNU Lesser General Public            |
| License as published by the Free Software Foundation; either          |
| version 2.1 of the License, or (at your option) any later version.    |
|                                                                       |
| SU2 is distributed in the hope that it will be useful,                |
| but WITHOUT ANY WARRANTY; without even the implied warranty of        |
| MERCHANTABILITY or FITNESS FOR A PARTICULAR PURPOSE. See the GNU      |
| Lesser General Public License for more details.                       |
|                                                                       |
| You should have received a copy of the GNU Lesser General Public      |
| License along with SU2. If not, see <http://www.gnu.org/licenses/>.   |
-------------------------------------------------------------------------

Parsing config file for zone 0

----------------- Physical Case Definition ( Zone 0 ) -------------------
Compressible RANS equations.
Turbulence model: Spalart-Allmaras-noft2
Hybrid RANS/LES: No Hybrid RANS/LES
Mach number: 1.5.
Angle of attack (AoA): 0 deg, and angle of sideslip (AoS): 0 deg.
Reynolds number: 1.71557e+08. Reference length 5.
No restart solution, use the values at infinity (freestream).
Non-Dimensional simulation (V=1.0, Rho=1.0, T=1.0 at the farfield).
The reference area will be computed using y(2D) or z(3D) projection.
The semi-span will be computed using the max y(3D) value.
The reference length is 0.64607 m.
Reference origin for moment evaluation is (0.25, 0, 0).
Surface(s) where the force coefficients are evaluated: ORION_SURFACE.

Input mesh file name: ../../mesh/fine.su2

--------------- Space Numerical Integration ( Zone 0 ) ------------------
Jameson-Schmidt-Turkel scheme (2nd order in space) for the flow inviscid terms.
JST viscous coefficients (2nd & 4th): 0.5, 0.02.
The method includes a grid stretching correction (p = 0.3).
Scalar upwind solver for the turbulence model.
First order integration in space.
Average of gradients with correction (viscous flow terms).
Average of gradients with correction (viscous turbulence terms).
Gradient for upwind reconstruction: Green-Gauss.
Gradient for viscous and source terms: Green-Gauss.

--------------- Time Numerical Integration  ( Zone 0 ) ------------------
Local time stepping (steady state simulation).
Euler implicit method for the flow equations.
FGMRES is used for solving the linear system.
Using a ILU(0) preconditioning.
Convergence criteria of the linear solver: 1e-06.
Max number of linear iterations: 100.
CFL adaptation. Factor down: 0.5, factor up: 1.2,
                lower limit: 0.1, upper limit: 3,
                acceptable linear residual: 0.001.
Courant-Friedrichs-Lewy number:        1
Euler implicit time integration for the turbulence model.

------------------ Convergence Criteria  ( Zone 0 ) ---------------------
Maximum number of solver subiterations: 999999.
Begin convergence monitoring at iteration 5.
Residual minimum value: 1e-8.
Cauchy series min. value: 1e-10.
Number of Cauchy elements: 100.
Begin windowed time average at iteration 0.

-------------------- Output Information ( Zone 0 ) ----------------------
File writing frequency: 
+------------------------------------+
|                     File| Frequency|
+------------------------------------+
|                  RESTART|       150|
|                 PARAVIEW|       150|
|         SURFACE_PARAVIEW|       150|
+------------------------------------+
Writing the convergence history file every 1 inner iterations.
Writing the screen convergence history every 1 inner iterations.
The tabular file format is CSV (.csv).
Convergence history file name: history.
Forces breakdown file name: forces_breakdown.dat.
Surface file name: surface_flow.
Volume file name: flow.
Restart file name: restart_flow.

------------- Config File Boundary Information ( Zone 0 ) ---------------
+-----------------------------------------------------------------------+
|                        Marker Type|                        Marker Name|
+-----------------------------------------------------------------------+
|                          Far-field|                           FARFIELD|
+-----------------------------------------------------------------------+
|                     Heat flux wall|                      ORION_SURFACE|
+-----------------------------------------------------------------------+

-------------------- Output Preprocessing ( Zone 0 ) --------------------

WARNING: SURFACE_PRESSURE_DROP can only be computed for at least 2 surfaces (outlet, inlet, ...)

Screen output fields: INNER_ITER, WALL_TIME, RMS_DENSITY, RMS_MOMENTUM-X, RMS_MOMENTUM-Y, RMS_MOMENTUM-Z, RMS_ENERGY, RMS_NU_TILDE, DRAG
History output group(s): ITER, RMS_RES
Convergence field(s): RMS_DENSITY
Warning: No (valid) fields chosen for time convergence monitoring. Time convergence monitoring inactive.
Volume output fields: MACH, PRESSURE, TEMPERATURE, DENSITY, HEAT_FLUX, Y_PLUS, COORDINATES, SOLUTION

------------------- Geometry Preprocessing ( Zone 0 ) -------------------
Three dimensional problem.
62211324 grid points before partitioning.
190879888 volume elements before partitioning.
2 surface markers.
4104 boundary elements in index 0 (Marker = FARFIELD).
1824836 boundary elements in index 1 (Marker = ORION_SURFACE).
Executing the partitioning functions.
Building the graph adjacency structure.
Calling ParMETIS... graph partitioning complete (4959327 edge cuts).
Distributing ParMETIS coloring.
Rebalancing vertices.
Rebalancing volume element connectivity.
Rebalancing markers and surface elements.
66952290 vertices including ghost points. 
197997438 interior elements including halo cells. 
103171259 tetrahedra.
94500655 prisms.
325524 pyramids.
Establishing MPI communication patterns.
Setting point connectivity.
Renumbering points (Reverse Cuthill McKee Ordering).
Recomputing point connectivity.
Setting element connectivity.
Checking the numerical grid orientation.
All volume elements are correctly orientend.
All surface elements are correctly orientend.
Identifying edges and vertices.
Setting the control volume structure.
Volume of the computational grid: 535693.
Searching for the closest normal neighbors to the surfaces.
Storing a mapping from global to local point index.
Compute the surface curvature.
Max K: 132.896. Mean K: 3.9104. Standard deviation K: 7.49569.
Checking for periodicity.
Computing mesh quality statistics for the dual control volumes.
+--------------------------------------------------------------+
|           Mesh Quality Metric|        Minimum|        Maximum|
+--------------------------------------------------------------+
|    Orthogonality Angle (deg.)|        53.0661|             90|
|     CV Face Area Aspect Ratio|        1.01143|        75298.5|
|           CV Sub-Volume Ratio|        1.00029|        45.0258|
+--------------------------------------------------------------+
Finding max control volume width.
Communicating number of neighbors.
Reference area = 11.531 m^2.
Semi-span length = 2.49999 m.
Wetted area = 57.9072 m^2.
Area projection in the x-plane = 19.6343 m^2, y-plane = 11.531 m^2, z-plane = 11.531 m^2.
Max. coordinate in the x-direction = 2.575 m, y-direction = 2.49999 m, z-direction = 2.49999 m.
Min. coordinate in the x-direction = -0.71 m, y-direction = -2.49999 m, z-direction = -2.5 m.
Computing wall distances.

-------------------- Solver Preprocessing ( Zone 0 ) --------------------
Viscous flow: Computing pressure using the ideal gas law
based on the free-stream temperature and a density computed
from the Reynolds number.
Force coefficients computed using free-stream values.

-- Models:
+------------------------------------------------------------------------------+
|          Viscosity Model|        Conductivity Model|              Fluid Model|
+------------------------------------------------------------------------------+
|               SUTHERLAND|          CONSTANT_PRANDTL|             STANDARD_AIR|
+------------------------------------------------------------------------------+
-- Fluid properties:
+------------------------------------------------------------------------------+
|                  Name|    Dim. value|    Ref. value|      Unit|Non-dim. value|
+------------------------------------------------------------------------------+
|        Ref. Viscosity|     1.716e-05|       613.934|   N.s/m^2|   2.79509e-08|
|      Sutherland Temp.|        273.15|        288.15|         K|      0.947944|
|     Sutherland Const.|         110.4|        288.15|         K|      0.383134|
+------------------------------------------------------------------------------+
|        Prandtl (Lam.)|             -|             -|         -|          0.72|
|       Prandtl (Turb.)|             -|             -|         -|           0.9|
+------------------------------------------------------------------------------+
|          Gas Constant|       287.058|       904.233|  N.m/kg.K|       0.31746|
|      Spec. Heat Ratio|             -|             -|         -|           1.4|
+------------------------------------------------------------------------------+
-- Initial and free-stream conditions:
+------------------------------------------------------------------------------+
|                  Name|    Dim. value|    Ref. value|      Unit|Non-dim. value|
+------------------------------------------------------------------------------+
|       Static Pressure|       99485.6|        313380|        Pa|       0.31746|
|               Density|       1.20274|       1.20274|    kg/m^3|             1|
|           Temperature|        288.15|        288.15|         K|             1|
|          Total Energy|        337067|        260555|   m^2/s^2|       1.29365|
|            Velocity-X|       510.446|       510.446|       m/s|             1|
|            Velocity-Y|             0|       510.446|       m/s|             0|
|            Velocity-Z|             0|       510.446|       m/s|             0|
|    Velocity Magnitude|       510.446|       510.446|       m/s|             1|
+------------------------------------------------------------------------------+
|             Viscosity|    1.7893e-05|       613.934|   N.s/m^2|   2.91448e-08|
|          Conductivity|             -|        555139|   W/m^2.K|             -|
|     Turb. Kin. Energy|        977.08|        260555|   m^2/s^2|       0.00375|
|     Spec. Dissipation|   6.56779e+06|       510.446|       1/s|       12866.8|
+------------------------------------------------------------------------------+
|           Mach Number|             -|             -|         -|           1.5|
|       Reynolds Number|             -|             -|         -|   1.71557e+08|
+------------------------------------------------------------------------------+
Initialize Jacobian structure (Navier-Stokes). MG level: 0.
Initialize Jacobian structure (SA model).

------------------- Numerics Preprocessing ( Zone 0 ) -------------------

----------------- Integration Preprocessing ( Zone 0 ) ------------------

------------------- Iteration Preprocessing ( Zone 0 ) ------------------
Euler/Navier-Stokes/RANS fluid iteration.

------------------------------ Begin Solver -----------------------------

Simulation Run using the Single-zone Driver
WARNING: SU2 was not compiled for an AVX-capable architecture. Performance could be better,
         see https://su2code.github.io/docs_v7/Build-SU2-Linux-MacOS/#compiler-optimizations
+--------------------------------------------------------------------------------------------------------------------+
|  Inner_Iter|   Time(sec)|    rms[Rho]|   rms[RhoU]|   rms[RhoV]|   rms[RhoW]|   rms[RhoE]|     rms[nu]|          CD|
+--------------------------------------------------------------------------------------------------------------------+
|           0|  6.2916e+00|   -5.249269|  -15.875036|  -16.490203|  -16.504799|   -5.042143|  -12.294521|    1.193550|
|           1|  6.2468e+00|   -5.400951|   -5.442480|   -6.508097|   -6.508001|   -5.196332|  -12.292150|    1.788065|
|           2|  6.2305e+00|   -5.403281|   -5.491331|   -6.475207|   -6.475201|   -5.190138|  -12.578133|    2.422917|
|           3|  6.2902e+00|   -5.405778|   -5.554954|   -6.383054|   -6.383069|   -5.183008|  -12.701376|    3.112771|
|           4|  6.3085e+00|   -5.411356|   -5.633141|   -6.286744|   -6.286754|   -5.179038|  -12.809019|    3.877417|
|           5|  6.4055e+00|   -5.425635|   -5.712048|   -6.202822|   -6.202830|   -5.185438|  -12.873669|    4.641283|
|           6|  6.5275e+00|   -5.456916|   -5.748309|   -6.134443|   -6.134456|   -5.214166|  -12.898782|    5.402369|
|           7|  6.6169e+00|   -5.509506|   -5.709446|   -6.075127|   -6.075152|   -5.272271|  -12.901558|    6.036477|
|           8|  6.7502e+00|   -5.554438|   -5.637592|   -6.032244|   -6.032279|   -5.329431|  -12.894021|    6.339890|
|           9|  6.8635e+00|   -5.528966|   -5.592834|   -6.001574|   -6.001605|   -5.293807|  -12.864812|    6.102441|
|          10|  6.9618e+00|   -5.454431|   -5.604704|   -5.977149|   -5.977176|   -5.192172|  -12.854606|    5.369917|
|          11|  7.0385e+00|   -5.408062|   -5.669593|   -5.952268|   -5.952308|   -5.132047|  -12.854805|    4.514748|
|          12|  7.0990e+00|   -5.413265|   -5.719319|   -5.938657|   -5.938704|   -5.135222|  -12.806489|    3.949091|
|          13|  7.1514e+00|   -5.450778|   -5.696253|   -5.938317|   -5.938367|   -5.180019|  -12.765404|    3.760109|
|          14|  7.1999e+00|   -5.486867|   -5.648660|   -5.945725|   -5.945781|   -5.229513|  -12.757904|    3.874747|
|          15|  7.2337e+00|   -5.495181|   -5.651599|   -5.961365|   -5.961424|   -5.240306|  -12.754604|    4.150167|
|          16|  7.2728e+00|   -5.487739|   -5.706892|   -5.980577|   -5.980639|   -5.226662|  -12.741554|    4.447445|
|          17|  7.3054e+00|   -5.488644|   -5.752572|   -5.987215|   -5.987274|   -5.227079|  -12.714777|    4.680257|
|          18|  7.3329e+00|   -5.499120|   -5.727315|   -5.982190|   -5.982256|   -5.243751|  -12.694471|    4.821246|
|          19|  7.3611e+00|   -5.505213|   -5.693803|   -5.975250|   -5.975324|   -5.252967|  -12.687927|    4.891470|
|          20|  7.3849e+00|   -5.500058|   -5.704200|   -5.981259|   -5.981332|   -5.244415|  -12.681406|    4.931771|
|          21|  7.4020e+00|   -5.496079|   -5.747030|   -5.988944|   -5.989012|   -5.237648|  -12.672929|    4.972241|
|          22|  7.4221e+00|   -5.497309|   -5.755427|   -5.985033|   -5.985110|   -5.240488|  -12.654080|    5.020329|
|          23|  7.4382e+00|   -5.500824|   -5.717562|   -5.974055|   -5.974133|   -5.247659|  -12.641288|    5.067781|
|          24|  7.4563e+00|   -5.499491|   -5.694999|   -5.969582|   -5.969663|   -5.245646|  -12.634982|    5.103472|
|          25|  7.4739e+00|   -5.491983|   -5.710569|   -5.975240|   -5.975319|   -5.233744|  -12.630237|    5.122613|
|          26|  7.4889e+00|   -5.487519|   -5.740779|   -5.976817|   -5.976902|   -5.227056|  -12.624741|    5.128803|
|          27|  7.5077e+00|   -5.490202|   -5.736630|   -5.971831|   -5.971925|   -5.231655|  -12.611693|    5.130187|
|          28|  7.5205e+00|   -5.491624|   -5.703294|   -5.961941|   -5.962030|   -5.235645|  -12.601646|    5.133932|
|          29|  7.5334e+00|   -5.489306|   -5.689659|   -5.961103|   -5.961195|   -5.232367|  -12.594450|    5.142933|
|          30|  7.5433e+00|   -5.482152|   -5.705181|   -5.965407|   -5.965499|   -5.221498|  -12.593794|    5.155945|
|          31|  7.5484e+00|   -5.479634|   -5.725360|   -5.965400|   -5.965492|   -5.217766|  -12.588152|    5.169756|
|          32|  7.5578e+00|   -5.482257|   -5.715799|   -5.959523|   -5.959617|   -5.222023|  -12.582801|    5.181552|
|          33|  7.5676e+00|   -5.482855|   -5.688894|   -5.953000|   -5.953100|   -5.224631|  -12.572688|    5.190252|
|          34|  7.5773e+00|   -5.480116|   -5.680423|   -5.954635|   -5.954730|   -5.220789|  -12.566082|    5.196539|
|          35|  7.5864e+00|   -5.473471|   -5.691042|   -5.956602|   -5.956709|   -5.211302|  -12.567678|    5.201981|
|          36|  7.5936e+00|   -5.472429|   -5.700385|   -5.955868|   -5.955963|   -5.209738|  -12.561151|    5.207965|
|          37|  7.5993e+00|   -5.473333|   -5.685628|   -5.949406|   -5.949516|   -5.211580|  -12.561079|    5.215036|
|          38|  7.6072e+00|   -5.472954|   -5.661906|   -5.946062|   -5.946168|   -5.212562|  -12.548876|    5.222857|
|          39|  7.6152e+00|   -5.468493|   -5.649693|   -5.947108|   -5.947212|   -5.206549|  -12.543636|    5.230643|
|          40|  7.6224e+00|   -5.461971|   -5.645672|   -5.947229|   -5.947330|   -5.197795|  -12.542093|    5.237697|
|          41|  7.6382e+00|   -5.459170|   -5.635904|   -5.943682|   -5.943785|   -5.194184|  -12.533909|    5.243755|
|          42|  7.6548e+00|   -5.455930|   -5.609696|   -5.936216|   -5.936325|   -5.190784|  -12.531500|    5.248993|
|          43|  7.6694e+00|   -5.451328|   -5.579231|   -5.931870|   -5.931975|   -5.186339|  -12.515789|    5.253808|
|          44|  7.6832e+00|   -5.441900|   -5.552701|   -5.927254|   -5.927361|   -5.174938|  -12.507124|    5.258538|
|          45|  7.6942e+00|   -5.431601|   -5.528486|   -5.921510|   -5.921601|   -5.162837|  -12.498032|    5.263302|
|          46|  7.7068e+00|   -5.422288|   -5.501224|   -5.910548|   -5.910637|   -5.152486|  -12.485281|    5.268011|
|          47|  7.7185e+00|   -5.411931|   -5.468499|   -5.898212|   -5.898295|   -5.141748|  -12.475417|    5.272489|
|          48|  7.7301e+00|   -5.400268|   -5.435782|   -5.886721|   -5.886800|   -5.130227|  -12.457234|    5.276608|
|          49|  7.7390e+00|   -5.385411|   -5.405681|   -5.873349|   -5.873420|   -5.114764|  -12.442925|    5.280349|
|          50|  7.7479e+00|   -5.370297|   -5.378128|   -5.858679|   -5.858734|   -5.099540|  -12.429168|    5.283788|
|          51|  7.7582e+00|   -5.355834|   -5.351702|   -5.840788|   -5.840839|   -5.085584|  -12.413461|    5.287029|
|          52|  7.7684e+00|   -5.341281|   -5.325315|   -5.823533|   -5.823572|   -5.072036|  -12.400169|    5.290145|
|          53|  7.7805e+00|   -5.326678|   -5.300489|   -5.806578|   -5.806610|   -5.058957|  -12.384301|    5.293150|
|          54|  7.7887e+00|   -5.311665|   -5.278143|   -5.789860|   -5.789884|   -5.045261|  -12.369412|    5.296020|
|          55|  7.7986e+00|   -5.296888|   -5.258210|   -5.772784|   -5.772798|   -5.031911|  -12.357671|    5.298719|
|          56|  7.8082e+00|   -5.283741|   -5.240463|   -5.755943|   -5.755956|   -5.020589|  -12.344184|    5.301229|
|          57|  7.8154e+00|   -5.271238|   -5.223868|   -5.740603|   -5.740606|   -5.009933|  -12.333861|    5.303558|
|          58|  7.8221e+00|   -5.259750|   -5.208792|   -5.726176|   -5.726178|   -5.000644|  -12.323185|    5.305735|
|          59|  7.8295e+00|   -5.249039|   -5.195679|   -5.713188|   -5.713182|   -4.991926|  -12.312465|    5.307786|
|          60|  7.8382e+00|   -5.238710|   -5.184409|   -5.700471|   -5.700469|   -4.983375|  -12.305701|    5.309731|
|          61|  7.8478e+00|   -5.230329|   -5.175163|   -5.689395|   -5.689388|   -4.977037|  -12.296850|    5.311574|
|          62|  7.8553e+00|   -5.222592|   -5.166919|   -5.679468|   -5.679462|   -4.971073|  -12.291719|    5.313310|
|          63|  7.8621e+00|   -5.216230|   -5.159781|   -5.670673|   -5.670660|   -4.966849|  -12.286055|    5.314931|
|          64|  7.8683e+00|   -5.210552|   -5.153992|   -5.662927|   -5.662917|   -4.962998|  -12.280325|    5.316435|
|          65|  7.8748e+00|   -5.205183|   -5.149469|   -5.655607|   -5.655591|   -4.959169|  -12.277856|    5.317828|
|          66|  7.8800e+00|   -5.201370|   -5.146484|   -5.649659|   -5.649647|   -4.957064|  -12.273190|    5.319117|
|          67|  7.8850e+00|   -5.197923|   -5.144088|   -5.644238|   -5.644217|   -4.954947|  -12.272134|    5.320312|
|          68|  7.8898e+00|   -5.195771|   -5.142348|   -5.639832|   -5.639820|   -4.954547|  -12.269922|    5.321421|
|          69|  7.8949e+00|   -5.193873|   -5.141410|   -5.635789|   -5.635769|   -4.953997|  -12.267814|    5.322446|
|          70|  7.9006e+00|   -5.192146|   -5.141250|   -5.632224|   -5.632206|   -4.953386|  -12.267926|    5.323390|
|          71|  7.9046e+00|   -5.191432|   -5.142145|   -5.629454|   -5.629423|   -4.953884|  -12.265957|    5.324252|
|          72|  7.9088e+00|   -5.190810|   -5.143243|   -5.626834|   -5.626795|   -4.954115|  -12.266969|    5.325034|
|          73|  7.9138e+00|   -5.191118|   -5.144590|   -5.624956|   -5.624919|   -4.955725|  -12.266659|    5.325739|
|          74|  7.9192e+00|   -5.191336|   -5.146355|   -5.623034|   -5.622997|   -4.956854|  -12.266136|    5.326371|
|          75|  7.9256e+00|   -5.191473|   -5.148517|   -5.621657|   -5.621634|   -4.957732|  -12.267322|    5.326936|
|          76|  7.9290e+00|   -5.192239|   -5.151392|   -5.620663|   -5.620639|   -4.959373|  -12.266454|    5.327438|
|          77|  7.9325e+00|   -5.192854|   -5.154182|   -5.619783|   -5.619768|   -4.960561|  -12.267874|    5.327879|
|          78|  7.9304e+00|   -5.194033|   -5.156931|   -5.619369|   -5.619362|   -4.962743|  -12.268300|    5.328263|
|          79|  7.9286e+00|   -5.195032|   -5.159888|   -5.618841|   -5.618835|   -4.964413|  -12.267893|    5.328591|
|          80|  7.9271e+00|   -5.195715|   -5.162921|   -5.618700|   -5.618715|   -4.965511|  -12.269486|    5.328865|
|          81|  7.9246e+00|   -5.197017|   -5.166501|   -5.618596|   -5.618610|   -4.967407|  -12.268849|    5.329087|
|          82|  7.9229e+00|   -5.198058|   -5.169821|   -5.618482|   -5.618508|   -4.968626|  -12.270216|    5.329260|
|          83|  7.9205e+00|   -5.199588|   -5.172962|   -5.618451|   -5.618477|   -4.970719|  -12.270995|    5.329385|
|          84|  7.9184e+00|   -5.201006|   -5.176196|   -5.618231|   -5.618255|   -4.972434|  -12.270301|    5.329466|
|          85|  7.9178e+00|   -5.201879|   -5.179258|   -5.618124|   -5.618162|   -4.973280|  -12.271998|    5.329502|
|          86|  7.9162e+00|   -5.203378|   -5.182831|   -5.617963|   -5.617988|   -4.975078|  -12.271047|    5.329496|
|          87|  7.9143e+00|   -5.204375|   -5.186047|   -5.617765|   -5.617801|   -4.975891|  -12.271997|    5.329448|
|          88|  7.9130e+00|   -5.205778|   -5.189017|   -5.617549|   -5.617574|   -4.977555|  -12.272788|    5.329360|
|          89|  7.9116e+00|   -5.207121|   -5.192021|   -5.617229|   -5.617245|   -4.979009|  -12.271723|    5.329232|
|          90|  7.9103e+00|   -5.207776|   -5.194687|   -5.616877|   -5.616896|   -4.979388|  -12.273440|    5.329065|
|          91|  7.9092e+00|   -5.209054|   -5.197846|   -5.616447|   -5.616443|   -4.980811|  -12.272568|    5.328859|
|          92|  7.9078e+00|   -5.209727|   -5.200663|   -5.615929|   -5.615929|   -4.981094|  -12.273308|    5.328614|
|          93|  7.9068e+00|   -5.210701|   -5.203176|   -5.615303|   -5.615286|   -4.982100|  -12.274644|    5.328329|
|          94|  7.9052e+00|   -5.211741|   -5.205757|   -5.614617|   -5.614592|   -4.983209|  -12.273719|    5.328003|
|          95|  7.8991e+00|   -5.211978|   -5.207911|   -5.613835|   -5.613821|   -4.983058|  -12.275701|    5.327636|
|          96|  7.8933e+00|   -5.212757|   -5.210523|   -5.612965|   -5.612936|   -4.983930|  -12.275553|    5.327225|
|          97|  7.8884e+00|   -5.212977|   -5.212978|   -5.612011|   -5.612001|   -4.983735|  -12.275990|    5.326769|
|          98|  7.8836e+00|   -5.213308|   -5.215052|   -5.610893|   -5.610890|   -4.983887|  -12.278100|    5.326265|
|          99|  7.8777e+00|   -5.214011|   -5.217330|   -5.609734|   -5.609736|   -4.984707|  -12.277273|    5.325712|
|         100|  7.8715e+00|   -5.213870|   -5.219181|   -5.608493|   -5.608530|   -4.984096|  -12.278728|    5.325108|
|         101|  7.8377e+00|   -5.214123|   -5.221321|   -5.607127|   -5.607170|   -4.984320|  -12.279966|    5.325097|
|         102|  7.8040e+00|   -5.213416|   -5.221322|   -5.606750|   -5.606794|   -4.983523|  -12.279065|    5.325084|
|         103|  7.7751e+00|   -5.212586|   -5.221315|   -5.606301|   -5.606346|   -4.982592|  -12.277988|    5.325068|
|         104|  7.7466e+00|   -5.211620|   -5.221295|   -5.605765|   -5.605811|   -4.981510|  -12.276706|    5.325048|
|         105|  7.7197e+00|   -5.210504|   -5.221252|   -5.605127|   -5.605175|   -4.980266|  -12.275183|    5.325023|
|         106|  7.6923e+00|   -5.209233|   -5.221170|   -5.604370|   -5.604421|   -4.978854|  -12.273380|    5.324993|
|         107|  7.6660e+00|   -5.207812|   -5.221023|   -5.603475|   -5.603529|   -4.977284|  -12.271269|    5.324954|
|         108|  7.6403e+00|   -5.206266|   -5.220774|   -5.602423|   -5.602481|   -4.975590|  -12.268863|    5.324905|
|         109|  7.6186e+00|   -5.204654|   -5.220372|   -5.601197|   -5.601259|   -4.973851|  -12.266272|    5.324844|
|         110|  7.5967e+00|   -5.203080|   -5.219758|   -5.599784|   -5.599853|   -4.972208|  -12.263800|    5.324766|
|         111|  7.5755e+00|   -5.201694|   -5.218880|   -5.598187|   -5.598262|   -4.970868|  -12.261890|    5.324667|
|         112|  7.5583e+00|   -5.200653|   -5.217721|   -5.596419|   -5.596497|   -4.970041|  -12.260869|    5.324540|
|         113|  7.5420e+00|   -5.200013|   -5.216322|   -5.594501|   -5.594581|   -4.969758|  -12.260562|    5.324375|
|         114|  7.5262e+00|   -5.199506|   -5.214773|   -5.592443|   -5.592526|   -4.969477|  -12.259779|    5.324162|
|         115|  7.5144e+00|   -5.198340|   -5.213200|   -5.590229|   -5.590324|   -4.967747|  -12.256727|    5.323884|
|         116|  7.5032e+00|   -5.195498|   -5.212030|   -5.587831|   -5.587950|   -4.962964|  -12.252429|    5.323521|
|         117|  7.4943e+00|   -5.190726|   -5.212410|   -5.585250|   -5.585386|   -4.955388|  -12.250732|    5.323045|
|         118|  7.4898e+00|   -5.185801|   -5.214832|   -5.582821|   -5.582948|   -4.948053|  -12.252683|    5.322421|
|         119|  7.4850e+00|   -5.183188|   -5.218354|   -5.581808|   -5.581929|   -4.944129|  -12.254910|    5.321603|
|         120|  7.4839e+00|   -5.183392|   -5.222540|   -5.582991|   -5.583146|   -4.943755|  -12.259739|    5.320605|
|         121|  7.4829e+00|   -5.187920|   -5.227258|   -5.585624|   -5.585797|   -4.949431|  -12.268327|    5.319545|
|         122|  7.4790e+00|   -5.195354|   -5.230726|   -5.587849|   -5.587979|   -4.959720|  -12.273957|    5.318419|
|         123|  7.4748e+00|   -5.201290|   -5.232264|   -5.589486|   -5.589590|   -4.968012|  -12.274286|    5.317223|
|         124|  7.4707e+00|   -5.203832|   -5.232674|   -5.590172|   -5.590318|   -4.971475|  -12.275416|    5.315957|
|         125|  7.4665e+00|   -5.205098|   -5.233833|   -5.589870|   -5.590032|   -4.973517|  -12.274499|    5.314620|
|         126|  7.4624e+00|   -5.203971|   -5.236245|   -5.588831|   -5.588964|   -4.972274|  -12.269333|    5.313221|
|         127|  7.4585e+00|   -5.201055|   -5.238778|   -5.587503|   -5.587646|   -4.968347|  -12.267645|    5.311772|
|         128|  7.4553e+00|   -5.199829|   -5.240028|   -5.586176|   -5.586338|   -4.967365|  -12.268423|    5.310301|
|         129|  7.4527e+00|   -5.199910|   -5.240232|   -5.584574|   -5.584723|   -4.968808|  -12.265346|    5.308846|
|         130|  7.4492e+00|   -5.198179|   -5.239667|   -5.582765|   -5.582937|   -4.967649|  -12.264439|    5.307465|
|         131|  7.4461e+00|   -5.196306|   -5.239663|   -5.581127|   -5.581331|   -4.966304|  -12.263388|    5.306228|
|         132|  7.4428e+00|   -5.193744|   -5.240796|   -5.579366|   -5.579565|   -4.963789|  -12.257972|    5.305216|
|         133|  7.4389e+00|   -5.189619|   -5.242255|   -5.577525|   -5.577733|   -4.958809|  -12.255973|    5.304510|
|         134|  7.4353e+00|   -5.186891|   -5.243040|   -5.575962|   -5.576197|   -4.956199|  -12.256728|    5.304168|
|         135|  7.4320e+00|   -5.185911|   -5.242844|   -5.574251|   -5.574473|   -4.956278|  -12.252663|    5.304214|
|         136|  7.4286e+00|   -5.183491|   -5.241836|   -5.572259|   -5.572453|   -4.954139|  -12.250028|    5.304607|
|         137|  7.4252e+00|   -5.180901|   -5.241534|   -5.570616|   -5.570813|   -4.952096|  -12.250347|    5.305231|
|         138|  7.4222e+00|   -5.178652|   -5.242038|   -5.568989|   -5.569174|   -4.950646|  -12.245626|    5.305886|
|         139|  7.4187e+00|   -5.174760|   -5.242355|   -5.566774|   -5.566913|   -4.946254|  -12.239754|    5.306289|
|         140|  7.4148e+00|   -5.170396|   -5.242700|   -5.564585|   -5.564705|   -4.941412|  -12.239339|    5.306102|
|         141|  7.4116e+00|   -5.168013|   -5.243178|   -5.562821|   -5.562948|   -4.940179|  -12.238192|    5.304966|
|         142|  7.4077e+00|   -5.165769|   -5.242357|   -5.560716|   -5.560831|   -4.938932|  -12.232110|    5.302548|
|         143|  7.4043e+00|   -5.162225|   -5.240630|   -5.558150|   -5.558243|   -4.935385|  -12.228079|    5.298595|
|         144|  7.4009e+00|   -5.158846|   -5.240089|   -5.555877|   -5.555979|   -4.932737|  -12.226275|    5.292978|
|         145|  7.3977e+00|   -5.155511|   -5.240373|   -5.553750|   -5.553875|   -4.930707|  -12.220595|    5.285719|
|         146|  7.3946e+00|   -5.150733|   -5.239874|   -5.550917|   -5.551040|   -4.926236|  -12.211946|    5.277003|
|         147|  7.3916e+00|   -5.144846|   -5.238847|   -5.547174|   -5.547278|   -4.920283|  -12.205546|    5.267159|
|         148|  7.3888e+00|   -5.139049|   -5.238363|   -5.542795|   -5.542889|   -4.915605|  -12.199479|    5.256622|
|         149|  7.3861e+00|   -5.132389|   -5.237414|   -5.537425|   -5.537517|   -4.910368|  -12.189457|    5.245883|
|         150|  7.3833e+00|   -5.123619|   -5.234776|   -5.530597|   -5.530653|   -4.901910|  -12.176993|    5.235430|
+-----------------------------------------------------------------------+
|        File Writing Summary       |              Filename             |
+-----------------------------------------------------------------------+
|SU2 binary restart                 |restart_flow.dat                   |
|Paraview                           |flow.vtu                           |
|Paraview surface                   |surface_flow.vtu                   |
+-----------------------------------------------------------------------+
+--------------------------------------------------------------------------------------------------------------------+
|  Inner_Iter|   Time(sec)|    rms[Rho]|   rms[RhoU]|   rms[RhoV]|   rms[RhoW]|   rms[RhoE]|     rms[nu]|          CD|
+--------------------------------------------------------------------------------------------------------------------+
|         151|  7.5273e+00|   -5.113011|   -5.231281|   -5.522417|   -5.522409|   -4.891052|  -12.165256|    5.225698|
|         152|  7.5282e+00|   -5.101271|   -5.227649|   -5.513229|   -5.513135|   -4.879338|  -12.152743|    5.217019|
|         153|  7.5252e+00|   -5.088292|   -5.223068|   -5.502979|   -5.502805|   -4.866245|  -12.137446|    5.209596|
|         154|  7.5223e+00|   -5.073732|   -5.216716|   -5.491425|   -5.491193|   -4.850954|  -12.121204|    5.203489|
|         155|  7.5164e+00|   -5.057792|   -5.208972|   -5.478435|   -5.478190|   -4.834053|  -12.104790|    5.198623|
|         156|  7.5103e+00|   -5.040629|   -5.200260|   -5.463967|   -5.463764|   -4.815899|  -12.086758|    5.194812|
|         157|  7.5044e+00|   -5.022097|   -5.190165|   -5.447989|   -5.447854|   -4.796096|  -12.066852|    5.191800|
|         158|  7.4987e+00|   -5.002136|   -5.178561|   -5.430605|   -5.430507|   -4.774569|  -12.046131|    5.189299|
|         159|  7.4931e+00|   -4.981000|   -5.165892|   -5.412042|   -5.411935|   -4.751811|  -12.024645|    5.187028|
|         160|  7.4874e+00|   -4.958892|   -5.152122|   -5.392415|   -5.392270|   -4.728103|  -12.002121|    5.184741|
|         161|  7.4818e+00|   -4.936000|   -5.136982|   -5.371757|   -5.371582|   -4.703664|  -11.979016|    5.182242|
|         162|  7.4761e+00|   -4.912531|   -5.120642|   -5.350148|   -5.349967|   -4.678812|  -11.955469|    5.179399|
|         163|  7.4711e+00|   -4.888570|   -5.103372|   -5.327654|   -5.327509|   -4.653638|  -11.931349|    5.176136|
|         164|  7.4654e+00|   -4.864156|   -5.085319|   -5.304311|   -5.304300|   -4.628143|  -11.906811|    5.172435|
|         165|  7.4598e+00|   -4.839330|   -5.066623|   -5.280184|   -5.280375|   -4.602385|  -11.881989|    5.168317|
|         166|  7.4537e+00|   -4.814143|   -5.047297|   -5.255322|   -5.255807|   -4.576401|  -11.856941|    5.163834|
|         167|  7.4362e+00|   -4.788628|   -5.027192|   -5.229815|   -5.230620|   -4.550176|  -11.862024|    5.163689|
|         168|  7.4186e+00|   -4.787194|   -5.026394|   -5.228622|   -5.229440|   -4.548796|  -11.860018|    5.163514|
|         169|  7.4011e+00|   -4.785494|   -5.025418|   -5.227193|   -5.228024|   -4.547160|  -11.857641|    5.163304|
|         170|  7.3836e+00|   -4.783480|   -5.024220|   -5.225480|   -5.226329|   -4.545225|  -11.854832|    5.163050|
|         171|  7.3689e+00|   -4.781103|   -5.022743|   -5.223429|   -5.224299|   -4.542945|  -11.851526|    5.162742|
|         172|  7.3539e+00|   -4.778307|   -5.020914|   -5.220974|   -5.221870|   -4.540266|  -11.847650|    5.162370|
|         173|  7.3390e+00|   -4.775029|   -5.018637|   -5.218037|   -5.218965|   -4.537131|  -11.843130|    5.161919|
|         174|  7.3244e+00|   -4.771206|   -5.015789|   -5.214529|   -5.215494|   -4.533480|  -11.837892|    5.161371|
|         175|  7.3103e+00|   -4.766769|   -5.012210|   -5.210342|   -5.211353|   -4.529249|  -11.831862|    5.160705|
|         176|  7.2989e+00|   -4.761651|   -5.007695|   -5.205356|   -5.206417|   -4.524372|  -11.824982|    5.159894|
|         177|  7.2874e+00|   -4.755783|   -5.001990|   -5.199429|   -5.200547|   -4.518770|  -11.817199|    5.158904|
|         178|  7.2757e+00|   -4.749088|   -4.994800|   -5.192408|   -5.193584|   -4.512354|  -11.808479|    5.157695|
|         179|  7.2644e+00|   -4.741480|   -4.985816|   -5.184122|   -5.185355|   -4.504991|  -11.798785|    5.156217|
|         180|  7.2559e+00|   -4.732818|   -4.974771|   -5.174388|   -5.175674|   -4.496462|  -11.788016|    5.154408|
|         181|  7.2474e+00|   -4.722864|   -4.961546|   -5.163019|   -5.164340|   -4.486388|  -11.776006|    5.152194|
|         182|  7.2416e+00|   -4.711232|   -4.946313|   -5.149834|   -5.151163|   -4.474183|  -11.762404|    5.149487|
|         183|  7.2359e+00|   -4.697322|   -4.929635|   -5.134630|   -5.135940|   -4.459022|  -11.746664|    5.146178|
|         184|  7.2300e+00|   -4.680404|   -4.912437|   -5.117198|   -5.118493|   -4.440022|  -11.728195|    5.142139|
|         185|  7.2267e+00|   -4.659873|   -4.895721|   -5.097357|   -5.098674|   -4.416688|  -11.706847|    5.137210|
|         186|  7.2232e+00|   -4.635679|   -4.879962|   -5.074990|   -5.076361|   -4.389458|  -11.684362|    5.131563|
|         187|  7.2199e+00|   -4.609907|   -4.865218|   -5.051325|   -5.052773|   -4.361379|  -11.663496|    5.125829|
|         188|  7.2167e+00|   -4.585993|   -4.850767|   -5.028796|   -5.030220|   -4.336642|  -11.644262|    5.119992|
|         189|  7.2136e+00|   -4.564866|   -4.833809|   -5.007554|   -5.008713|   -4.315791|  -11.626648|    5.114029|
|         190|  7.2123e+00|   -4.546307|   -4.814020|   -4.987637|   -4.988329|   -4.298024|  -11.610249|    5.107905|
|         191|  7.2111e+00|   -4.529493|   -4.793165|   -4.969028|   -4.969268|   -4.281941|  -11.594634|    5.101579|
|         192|  7.2101e+00|   -4.513659|   -4.773430|   -4.951763|   -4.951663|   -4.266373|  -11.579681|    5.095000|
|         193|  7.2087e+00|   -4.498502|   -4.756202|   -4.935975|   -4.935514|   -4.251009|  -11.565610|    5.088114|
|         194|  7.2073e+00|   -4.484127|   -4.741655|   -4.921623|   -4.920620|   -4.236165|  -11.552785|    5.080869|
|         195|  7.2062e+00|   -4.470840|   -4.729195|   -4.908472|   -4.906880|   -4.222413|  -11.541448|    5.073217|
|         196|  7.1923e+00|   -4.458855|   -4.717912|   -4.896173|   -4.894237|   -4.210038|  -11.545290|    5.072972|
|         197|  7.1787e+00|   -4.457840|   -4.717616|   -4.895449|   -4.893506|   -4.209137|  -11.543756|    5.072678|
|         198|  7.1671e+00|   -4.456649|   -4.717241|   -4.894585|   -4.892634|   -4.208084|  -11.541956|    5.072323|
|         199|  7.1553e+00|   -4.455258|   -4.716761|   -4.893557|   -4.891598|   -4.206862|  -11.539858|    5.071895|
|         200|  7.1438e+00|   -4.453646|   -4.716143|   -4.892336|   -4.890370|   -4.205454|  -11.537428|    5.071379|
|         201|  7.1323e+00|   -4.451791|   -4.715337|   -4.890889|   -4.888917|   -4.203847|  -11.534634|    5.070755|
|         202|  7.1210e+00|   -4.449676|   -4.714274|   -4.889178|   -4.887201|   -4.202033|  -11.531458|    5.070000|
|         203|  7.1102e+00|   -4.447296|   -4.712862|   -4.887160|   -4.885183|   -4.200016|  -11.527899|    5.069086|
|         204|  7.1016e+00|   -4.444661|   -4.710975|   -4.884792|   -4.882820|   -4.197819|  -11.523985|    5.067975|
|         205|  7.0931e+00|   -4.441804|   -4.708445|   -4.882030|   -4.880072|   -4.195483|  -11.519765|    5.066624|
|         206|  7.0842e+00|   -4.438778|   -4.705054|   -4.878823|   -4.876896|   -4.193060|  -11.515341|    5.064976|
|         207|  7.0754e+00|   -4.435666|   -4.700556|   -4.875126|   -4.873246|   -4.190622|  -11.510860|    5.062960|
|         208|  7.0690e+00|   -4.432566|   -4.694711|   -4.870905|   -4.869093|   -4.188227|  -11.506497|    5.060488|
|         209|  7.0623e+00|   -4.429561|   -4.687374|   -4.866132|   -4.864420|   -4.185870|  -11.502384|    5.057446|
|         210|  7.0562e+00|   -4.426673|   -4.678643|   -4.860821|   -4.859244|   -4.183424|  -11.498575|    5.053692|
|         211|  7.0518e+00|   -4.423758|   -4.669028|   -4.854997|   -4.853600|   -4.180507|  -11.494870|    5.049047|
|         212|  7.0476e+00|   -4.420431|   -4.659599|   -4.848734|   -4.847565|   -4.176456|  -11.490894|    5.043287|
|         213|  7.0454e+00|   -4.416075|   -4.651930|   -4.842128|   -4.841231|   -4.170423|  -11.486353|    5.036138|
|         214|  7.0431e+00|   -4.410138|   -4.647825|   -4.835320|   -4.834740|   -4.161923|  -11.481280|    5.027277|
|         215|  7.0425e+00|   -4.402672|   -4.648524|   -4.828481|   -4.828259|   -4.151510|  -11.476802|    5.017048|
|         216|  7.0400e+00|   -4.395003|   -4.653559|   -4.821985|   -4.822086|   -4.141581|  -11.474273|    5.006707|
|         217|  7.0379e+00|   -4.389221|   -4.659820|   -4.816192|   -4.816519|   -4.135164|  -11.473380|    4.996372|
|         218|  7.0355e+00|   -4.386607|   -4.663239|   -4.810950|   -4.811399|   -4.133315|  -11.474070|    4.986167|
|         219|  7.0333e+00|   -4.386987|   -4.662844|   -4.806187|   -4.806775|   -4.135401|  -11.475491|    4.976219|
|         220|  7.0310e+00|   -4.389079|   -4.660480|   -4.801866|   -4.802733|   -4.139523|  -11.476237|    4.966652|
|         221|  7.0288e+00|   -4.391314|   -4.658760|   -4.797909|   -4.799214|   -4.143552|  -11.475520|    4.957573|
|         222|  7.0270e+00|   -4.392660|   -4.659291|   -4.794257|   -4.796026|   -4.146155|  -11.473730|    4.949065|
|         223|  7.0253e+00|   -4.392944|   -4.662128|   -4.790873|   -4.792977|   -4.147207|  -11.471743|    4.941178|
|         224|  7.0232e+00|   -4.392571|   -4.666296|   -4.787776|   -4.790006|   -4.147417|  -11.470240|    4.933923|
|         225|  7.0212e+00|   -4.391958|   -4.670267|   -4.784867|   -4.786997|   -4.147384|  -11.469526|    4.927265|
|         226|  7.0191e+00|   -4.391360|   -4.673028|   -4.782054|   -4.783848|   -4.147416|  -11.469422|    4.921130|
|         227|  7.0168e+00|   -4.390904|   -4.674337|   -4.779271|   -4.780568|   -4.147600|  -11.469580|    4.915408|
|         228|  7.0147e+00|   -4.390698|   -4.674782|   -4.776483|   -4.777362|   -4.148047|  -11.469880|    4.909961|
|         229|  7.0130e+00|   -4.390695|   -4.675403|   -4.773653|   -4.774351|   -4.148759|  -11.470235|    4.904636|
|         230|  7.0111e+00|   -4.390700|   -4.676963|   -4.770798|   -4.771522|   -4.149574|  -11.470454|    4.899278|
|         231|  7.0091e+00|   -4.390495|   -4.679067|   -4.768007|   -4.768699|   -4.150169|  -11.470272|    4.893741|
|         232|  7.0072e+00|   -4.390041|   -4.680610|   -4.765355|   -4.765804|   -4.150383|  -11.469803|    4.887895|
|         233|  7.0052e+00|   -4.389567|   -4.681341|   -4.762882|   -4.762920|   -4.150562|  -11.469413|    4.881638|
|         234|  7.0034e+00|   -4.389236|   -4.681481|   -4.760511|   -4.760152|   -4.150932|  -11.469025|    4.874892|
|         235|  7.0014e+00|   -4.389042|   -4.681134|   -4.758154|   -4.757556|   -4.151441|  -11.468656|    4.867610|
|         236|  6.9995e+00|   -4.388878|   -4.680441|   -4.755772|   -4.755060|   -4.151923|  -11.468441|    4.859767|
|         237|  6.9977e+00|   -4.388716|   -4.679882|   -4.753437|   -4.752648|   -4.152393|  -11.468357|    4.851356|
|         238|  6.9958e+00|   -4.388529|   -4.679346|   -4.751136|   -4.750274|   -4.152806|  -11.468227|    4.842384|
|         239|  6.9940e+00|   -4.388358|   -4.678146|   -4.748902|   -4.747946|   -4.153151|  -11.468012|    4.832861|
|         240|  6.9921e+00|   -4.388273|   -4.675977|   -4.746816|   -4.745738|   -4.153557|  -11.467838|    4.822797|
|         241|  6.9901e+00|   -4.388251|   -4.673151|   -4.744862|   -4.743649|   -4.154080|  -11.467673|    4.812197|
|         242|  6.9882e+00|   -4.388160|   -4.669867|   -4.742885|   -4.741569|   -4.154533|  -11.467380|    4.801056|
|         243|  6.9863e+00|   -4.387919|   -4.665985|   -4.740799|   -4.739447|   -4.154779|  -11.466882|    4.789362|
|         244|  6.9844e+00|   -4.387531|   -4.661372|   -4.738581|   -4.737237|   -4.154811|  -11.466212|    4.777093|
|         245|  6.9825e+00|   -4.387085|   -4.656124|   -4.736270|   -4.734941|   -4.154768|  -11.465500|    4.764220|
|         246|  6.9805e+00|   -4.386577|   -4.650290|   -4.733862|   -4.732589|   -4.154692|  -11.464781|    4.750715|
|         247|  6.9786e+00|   -4.385960|   -4.643735|   -4.731318|   -4.730232|   -4.154500|  -11.464035|    4.736548|
|         248|  6.9766e+00|   -4.385184|   -4.636450|   -4.728662|   -4.727880|   -4.154107|  -11.463104|    4.721697|
|         249|  6.9748e+00|   -4.384263|   -4.628586|   -4.725951|   -4.725508|   -4.153544|  -11.461967|    4.706150|
|         250|  6.9728e+00|   -4.383254|   -4.620219|   -4.723248|   -4.723082|   -4.152885|  -11.460649|    4.689907|
|         251|  6.9709e+00|   -4.382171|   -4.611298|   -4.720552|   -4.720584|   -4.152125|  -11.459202|    4.672980|
|         252|  6.9690e+00|   -4.381012|   -4.601843|   -4.717884|   -4.718055|   -4.151284|  -11.457578|    4.655399|
|         253|  6.9670e+00|   -4.379729|   -4.591915|   -4.715230|   -4.715463|   -4.150307|  -11.455712|    4.637203|
|         254|  6.9652e+00|   -4.378260|   -4.581625|   -4.712541|   -4.712780|   -4.149148|  -11.453531|    4.618444|
|         255|  6.9635e+00|   -4.376578|   -4.570997|   -4.709734|   -4.709993|   -4.147763|  -11.451013|    4.599183|
|         256|  6.9615e+00|   -4.374711|   -4.560066|   -4.706777|   -4.707124|   -4.146184|  -11.448233|    4.579484|
|         257|  6.9597e+00|   -4.372681|   -4.548918|   -4.703723|   -4.704175|   -4.144450|  -11.445266|    4.559413|
|         258|  6.9582e+00|   -4.370519|   -4.537690|   -4.700665|   -4.701163|   -4.142626|  -11.442120|    4.539034|
|         259|  6.9568e+00|   -4.368174|   -4.526462|   -4.697625|   -4.698070|   -4.140657|  -11.438753|    4.518402|
|         260|  6.9556e+00|   -4.365625|   -4.515210|   -4.694578|   -4.694908|   -4.138506|  -11.435140|    4.497569|
|         261|  6.9541e+00|   -4.362874|   -4.503909|   -4.691469|   -4.691719|   -4.136165|  -11.431304|    4.476571|
|         262|  6.9527e+00|   -4.359970|   -4.492621|   -4.688311|   -4.688536|   -4.133705|  -11.427229|    4.455435|
|         263|  6.9514e+00|   -4.356913|   -4.481445|   -4.685102|   -4.685342|   -4.131153|  -11.422898|    4.434175|
|         264|  6.9502e+00|   -4.353693|   -4.470445|   -4.681824|   -4.682106|   -4.128492|  -11.418316|    4.412793|
|         265|  6.9488e+00|   -4.350300|   -4.459659|   -4.678470|   -4.678799|   -4.125707|  -11.413518|    4.391279|
|         266|  6.9478e+00|   -4.346740|   -4.449129|   -4.675056|   -4.675428|   -4.122813|  -11.408578|    4.369616|
|         267|  6.9462e+00|   -4.343013|   -4.438908|   -4.671597|   -4.672008|   -4.119824|  -11.403515|    4.347778|
|         268|  6.9447e+00|   -4.339120|   -4.429035|   -4.668111|   -4.668556|   -4.116752|  -11.398320|    4.325734|
|         269|  6.9434e+00|   -4.335059|   -4.419508|   -4.664591|   -4.665085|   -4.113580|  -11.393009|    4.303454|
|         270|  6.9418e+00|   -4.330860|   -4.410297|   -4.661053|   -4.661598|   -4.110321|  -11.387592|    4.280907|
|         271|  6.9405e+00|   -4.326607|   -4.401418|   -4.657519|   -4.658117|   -4.107082|  -11.382093|    4.258065|
|         272|  6.9394e+00|   -4.322346|   -4.392921|   -4.654015|   -4.654635|   -4.103950|  -11.376565|    4.234906|
|         273|  6.9384e+00|   -4.318041|   -4.384842|   -4.650539|   -4.651135|   -4.100886|  -11.371032|    4.211415|
|         274|  6.9373e+00|   -4.313616|   -4.377190|   -4.647056|   -4.647611|   -4.097778|  -11.365466|    4.187586|
|         275|  6.9363e+00|   -4.309050|   -4.369963|   -4.643533|   -4.644078|   -4.094579|  -11.359843|    4.163421|
|         276|  6.9350e+00|   -4.304384|   -4.363145|   -4.639996|   -4.640576|   -4.091319|  -11.354196|    4.138936|
|         277|  6.9337e+00|   -4.299707|   -4.356730|   -4.636496|   -4.637139|   -4.088111|  -11.348614|    4.114155|
|         278|  6.9321e+00|   -4.295079|   -4.350724|   -4.633082|   -4.633810|   -4.085039|  -11.343157|    4.089110|
|         279|  6.9305e+00|   -4.290516|   -4.345137|   -4.629780|   -4.630593|   -4.082120|  -11.337820|    4.063845|
|         280|  6.9289e+00|   -4.285990|   -4.339980|   -4.626578|   -4.627472|   -4.079307|  -11.332570|    4.038407|
|         281|  6.9274e+00|   -4.281482|   -4.335252|   -4.623463|   -4.624427|   -4.076561|  -11.327388|    4.012849|
|         282|  6.9260e+00|   -4.276992|   -4.330951|   -4.620438|   -4.621453|   -4.073874|  -11.322287|    3.987223|
|         283|  6.9244e+00|   -4.272527|   -4.327071|   -4.617499|   -4.618536|   -4.071250|  -11.317310|    3.961584|
|         284|  6.9228e+00|   -4.268103|   -4.323599|   -4.614641|   -4.615694|   -4.068704|  -11.312466|    3.935981|
|         285|  6.9216e+00|   -4.263733|   -4.320526|   -4.611845|   -4.612938|   -4.066241|  -11.307767|    3.910460|
|         286|  6.9202e+00|   -4.259430|   -4.317847|   -4.609097|   -4.610264|   -4.063870|  -11.303229|    3.885058|
|         287|  6.9187e+00|   -4.255204|   -4.315550|   -4.606394|   -4.607661|   -4.061587|  -11.298872|    3.859806|
|         288|  6.9172e+00|   -4.251071|   -4.313622|   -4.603749|   -4.605124|   -4.059396|  -11.294721|    3.834725|
|         289|  6.9158e+00|   -4.247040|   -4.312062|   -4.601192|   -4.602658|   -4.057311|  -11.290789|    3.809829|
|         290|  6.9143e+00|   -4.243112|   -4.310869|   -4.598735|   -4.600260|   -4.055329|  -11.287080|    3.785124|
|         291|  6.9130e+00|   -4.239274|   -4.310043|   -4.596354|   -4.597922|   -4.053418|  -11.283576|    3.760611|
|         292|  6.9116e+00|   -4.235514|   -4.309573|   -4.594020|   -4.595638|   -4.051550|  -11.280275|    3.736284|
|         293|  6.9101e+00|   -4.231847|   -4.309437|   -4.591725|   -4.593406|   -4.049730|  -11.277204|    3.712133|
|         294|  6.9087e+00|   -4.228306|   -4.309604|   -4.589467|   -4.591236|   -4.047991|  -11.274403|    3.688146|
|         295|  6.9076e+00|   -4.224921|   -4.310066|   -4.587267|   -4.589136|   -4.046375|  -11.271872|    3.664310|
|         296|  6.9066e+00|   -4.221704|   -4.310815|   -4.585136|   -4.587105|   -4.044902|  -11.269605|    3.640612|
|         297|  6.9054e+00|   -4.218640|   -4.311854|   -4.583063|   -4.585133|   -4.043545|  -11.267589|    3.617037|
|         298|  6.9042e+00|   -4.215706|   -4.313194|   -4.581038|   -4.583191|   -4.042265|  -11.265813|    3.593576|
|         299|  6.9032e+00|   -4.212896|   -4.314814|   -4.579053|   -4.581262|   -4.041036|  -11.264274|    3.570220|
|         300|  6.9021e+00|   -4.210219|   -4.316679|   -4.577115|   -4.579351|   -4.039872|  -11.262985|    3.546962|
+-----------------------------------------------------------------------+
|        File Writing Summary       |              Filename             |
+-----------------------------------------------------------------------+
|SU2 binary restart                 |restart_flow.dat                   |
|Paraview                           |flow.vtu                           |
|Paraview surface                   |surface_flow.vtu                   |
+-----------------------------------------------------------------------+
+--------------------------------------------------------------------------------------------------------------------+
|  Inner_Iter|   Time(sec)|    rms[Rho]|   rms[RhoU]|   rms[RhoV]|   rms[RhoW]|   rms[RhoE]|     rms[nu]|          CD|
+--------------------------------------------------------------------------------------------------------------------+
|         301|  6.9733e+00|   -4.207700|   -4.318753|   -4.575226|   -4.577472|   -4.038805|  -11.261958|    3.523799|
|         302|  6.9744e+00|   -4.205362|   -4.321009|   -4.573391|   -4.575645|   -4.037869|  -11.261181|    3.500731|
|         303|  6.9739e+00|   -4.203190|   -4.323429|   -4.571602|   -4.573879|   -4.037062|  -11.260642|    3.477761|
|         304|  6.9729e+00|   -4.201163|   -4.325997|   -4.569857|   -4.572169|   -4.036348|  -11.260319|    3.454893|
|         305|  6.9718e+00|   -4.199265|   -4.328688|   -4.568152|   -4.570507|   -4.035693|  -11.260203|    3.432135|
|         306|  6.9708e+00|   -4.197486|   -4.331478|   -4.566481|   -4.568891|   -4.035080|  -11.260297|    3.409494|
|         307|  6.9694e+00|   -4.195831|   -4.334327|   -4.564851|   -4.567318|   -4.034508|  -11.260620|    3.386980|
|         308|  6.9683e+00|   -4.194314|   -4.337188|   -4.563288|   -4.565783|   -4.033998|  -11.261170|    3.364604|
|         309|  6.9670e+00|   -4.192950|   -4.340027|   -4.561816|   -4.564298|   -4.033579|  -11.261943|    3.342376|
|         310|  6.9655e+00|   -4.191751|   -4.342804|   -4.560466|   -4.562886|   -4.033259|  -11.262929|    3.320308|
|         311|  6.9639e+00|   -4.190693|   -4.345476|   -4.559243|   -4.561554|   -4.033012|  -11.264097|    3.298409|
|         312|  6.9624e+00|   -4.189759|   -4.348009|   -4.558138|   -4.560318|   -4.032811|  -11.265400|    3.276693|
|         313|  6.9612e+00|   -4.188935|   -4.350341|   -4.557136|   -4.559180|   -4.032627|  -11.266825|    3.255169|
|         314|  6.9598e+00|   -4.188227|   -4.352425|   -4.556238|   -4.558146|   -4.032462|  -11.268365|    3.233848|
|         315|  6.9583e+00|   -4.187643|   -4.354220|   -4.555450|   -4.557216|   -4.032327|  -11.270018|    3.212742|
|         316|  6.9572e+00|   -4.187183|   -4.355679|   -4.554778|   -4.556391|   -4.032222|  -11.271780|    3.191860|
|         317|  6.9558e+00|   -4.186840|   -4.356761|   -4.554231|   -4.555676|   -4.032137|  -11.273647|    3.171212|
|         318|  6.9549e+00|   -4.186607|   -4.357436|   -4.553817|   -4.555081|   -4.032059|  -11.275602|    3.150807|
|         319|  6.9543e+00|   -4.186486|   -4.357687|   -4.553545|   -4.554630|   -4.031982|  -11.277632|    3.130653|
|         320|  6.9532e+00|   -4.186469|   -4.357504|   -4.553425|   -4.554322|   -4.031898|  -11.279720|    3.110756|
|         321|  6.9519e+00|   -4.186554|   -4.356887|   -4.553456|   -4.554155|   -4.031800|  -11.281847|    3.091122|
|         322|  6.9507e+00|   -4.186730|   -4.355848|   -4.553621|   -4.554122|   -4.031673|  -11.284001|    3.071754|
|         323|  6.9493e+00|   -4.187001|   -4.354411|   -4.553909|   -4.554213|   -4.031524|  -11.286165|    3.052654|
|         324|  6.9480e+00|   -4.187373|   -4.352595|   -4.554318|   -4.554419|   -4.031360|  -11.288335|    3.033821|
|         325|  6.9468e+00|   -4.187858|   -4.350428|   -4.554840|   -4.554743|   -4.031200|  -11.290504|    3.015253|
|         326|  6.9457e+00|   -4.188471|   -4.347949|   -4.555480|   -4.555197|   -4.031069|  -11.292681|    2.996946|
|         327|  6.9445e+00|   -4.189209|   -4.345210|   -4.556242|   -4.555786|   -4.030974|  -11.294858|    2.978892|
|         328|  6.9433e+00|   -4.190063|   -4.342265|   -4.557137|   -4.556512|   -4.030908|  -11.297012|    2.961083|
|         329|  6.9425e+00|   -4.191021|   -4.339184|   -4.558169|   -4.557378|   -4.030866|  -11.299127|    2.943508|
|         330|  6.9413e+00|   -4.192074|   -4.336026|   -4.559340|   -4.558380|   -4.030843|  -11.301185|    2.926155|
|         331|  6.9402e+00|   -4.193216|   -4.332847|   -4.560635|   -4.559508|   -4.030843|  -11.303194|    2.909012|
|         332|  6.9389e+00|   -4.194458|   -4.329693|   -4.562035|   -4.560752|   -4.030885|  -11.305177|    2.892065|
|         333|  6.9377e+00|   -4.195811|   -4.326613|   -4.563528|   -4.562106|   -4.031000|  -11.307161|    2.875301|
|         334|  6.9367e+00|   -4.197288|   -4.323640|   -4.565103|   -4.563563|   -4.031216|  -11.309167|    2.858708|
|         335|  6.9357e+00|   -4.198901|   -4.320833|   -4.566769|   -4.565130|   -4.031558|  -11.311214|    2.842274|
|         336|  6.9344e+00|   -4.200649|   -4.318243|   -4.568529|   -4.566820|   -4.032037|  -11.313290|    2.825986|
|         337|  6.9332e+00|   -4.202520|   -4.315934|   -4.570393|   -4.568638|   -4.032655|  -11.315384|    2.809835|
|         338|  6.9323e+00|   -4.204496|   -4.313945|   -4.572369|   -4.570575|   -4.033402|  -11.317497|    2.793812|
|         339|  6.9312e+00|   -4.206569|   -4.312304|   -4.574447|   -4.572626|   -4.034281|  -11.319636|    2.777910|
|         340|  6.9302e+00|   -4.208742|   -4.311021|   -4.576626|   -4.574774|   -4.035304|  -11.321818|    2.762120|
|         341|  6.9290e+00|   -4.211037|   -4.310109|   -4.578907|   -4.577024|   -4.036506|  -11.324066|    2.746440|
|         342|  6.9280e+00|   -4.213463|   -4.309607|   -4.581286|   -4.579377|   -4.037914|  -11.326393|    2.730864|
|         343|  6.9271e+00|   -4.216018|   -4.309521|   -4.583765|   -4.581823|   -4.039534|  -11.328788|    2.715392|
|         344|  6.9262e+00|   -4.218696|   -4.309868|   -4.586345|   -4.584374|   -4.041368|  -11.331237|    2.700021|
|         345|  6.9255e+00|   -4.221479|   -4.310655|   -4.589012|   -4.587024|   -4.043402|  -11.333731|    2.684753|
|         346|  6.9243e+00|   -4.224355|   -4.311882|   -4.591763|   -4.589768|   -4.045624|  -11.336272|    2.669587|
|         347|  6.9233e+00|   -4.227314|   -4.313544|   -4.594587|   -4.592601|   -4.048025|  -11.338876|    2.654525|
|         348|  6.9224e+00|   -4.230352|   -4.315637|   -4.597470|   -4.595525|   -4.050601|  -11.341552|    2.639565|
|         349|  6.9216e+00|   -4.233481|   -4.318160|   -4.600410|   -4.598549|   -4.053368|  -11.344311|    2.624707|
|         350|  6.9205e+00|   -4.236701|   -4.321097|   -4.603402|   -4.601673|   -4.056322|  -11.347171|    2.609948|
|         351|  6.9195e+00|   -4.240013|   -4.324437|   -4.606439|   -4.604896|   -4.059469|  -11.350134|    2.595281|
|         352|  6.9185e+00|   -4.243420|   -4.328169|   -4.609526|   -4.608213|   -4.062805|  -11.353182|    2.580698|
|         353|  6.9173e+00|   -4.246911|   -4.332272|   -4.612661|   -4.611608|   -4.066314|  -11.356283|    2.566189|
|         354|  6.9162e+00|   -4.250487|   -4.336739|   -4.615854|   -4.615076|   -4.069999|  -11.359424|    2.551740|
|         355|  6.9150e+00|   -4.254140|   -4.341550|   -4.619107|   -4.618598|   -4.073838|  -11.362623|    2.537339|
|         356|  6.9141e+00|   -4.257854|   -4.346680|   -4.622408|   -4.622154|   -4.077806|  -11.365888|    2.522975|
|         357|  6.9131e+00|   -4.261623|   -4.352110|   -4.625748|   -4.625723|   -4.081888|  -11.369209|    2.508642|
|         358|  6.9120e+00|   -4.265435|   -4.357813|   -4.629108|   -4.629288|   -4.086065|  -11.372570|    2.494343|
|         359|  6.9108e+00|   -4.269282|   -4.363758|   -4.632478|   -4.632842|   -4.090321|  -11.375957|    2.480088|
|         360|  6.9098e+00|   -4.273160|   -4.369925|   -4.635852|   -4.636389|   -4.094650|  -11.379363|    2.465896|
|         361|  6.9086e+00|   -4.277067|   -4.376285|   -4.639226|   -4.639940|   -4.099042|  -11.382790|    2.451796|
|         362|  6.9077e+00|   -4.280995|   -4.382811|   -4.642595|   -4.643497|   -4.103481|  -11.386240|    2.437828|
|         363|  6.9067e+00|   -4.284936|   -4.389472|   -4.645954|   -4.647053|   -4.107950|  -11.389695|    2.424036|
|         364|  6.9055e+00|   -4.288885|   -4.396240|   -4.649300|   -4.650598|   -4.112442|  -11.393153|    2.410474|
|         365|  6.9045e+00|   -4.292845|   -4.403089|   -4.652635|   -4.654118|   -4.116948|  -11.396611|    2.397195|
|         366|  6.9033e+00|   -4.296814|   -4.409990|   -4.655957|   -4.657617|   -4.121465|  -11.400061|    2.384254|
|         367|  6.9022e+00|   -4.300791|   -4.416915|   -4.659263|   -4.661090|   -4.125986|  -11.403483|    2.371700|
|         368|  6.9012e+00|   -4.304765|   -4.423838|   -4.662544|   -4.664531|   -4.130494|  -11.406857|    2.359575|
|         369|  6.9002e+00|   -4.308723|   -4.430736|   -4.665787|   -4.667929|   -4.134972|  -11.410171|    2.347911|
|         370|  6.8991e+00|   -4.312651|   -4.437583|   -4.668984|   -4.671276|   -4.139395|  -11.413415|    2.336729|
|         371|  6.8981e+00|   -4.316534|   -4.444359|   -4.672125|   -4.674563|   -4.143746|  -11.416587|    2.326041|
|         372|  6.8972e+00|   -4.320372|   -4.451042|   -4.675204|   -4.677790|   -4.148018|  -11.419705|    2.315847|
|         373|  6.8960e+00|   -4.324165|   -4.457614|   -4.678229|   -4.680962|   -4.152212|  -11.422752|    2.306140|
|         374|  6.8951e+00|   -4.327919|   -4.464058|   -4.681204|   -4.684084|   -4.156331|  -11.425720|    2.296903|
|         375|  6.8939e+00|   -4.331636|   -4.470354|   -4.684130|   -4.687157|   -4.160379|  -11.428605|    2.288114|
|         376|  6.8930e+00|   -4.335317|   -4.476481|   -4.687014|   -4.690174|   -4.164357|  -11.431397|    2.279749|
|         377|  6.8919e+00|   -4.338955|   -4.482420|   -4.689855|   -4.693128|   -4.168260|  -11.434088|    2.271777|
|         378|  6.8910e+00|   -4.342545|   -4.488154|   -4.692650|   -4.696017|   -4.172079|  -11.436668|    2.264170|
|         379|  6.8899e+00|   -4.346080|   -4.493663|   -4.695405|   -4.698834|   -4.175806|  -11.439129|    2.256897|
|         380|  6.8891e+00|   -4.349556|   -4.498928|   -4.698110|   -4.701573|   -4.179434|  -11.441481|    2.249924|
|         381|  6.8883e+00|   -4.352965|   -4.503926|   -4.700755|   -4.704230|   -4.182951|  -11.443722|    2.243220|
|         382|  6.8874e+00|   -4.356305|   -4.508638|   -4.703329|   -4.706806|   -4.186354|  -11.445842|    2.236749|
|         383|  6.8866e+00|   -4.359572|   -4.513043|   -4.705827|   -4.709301|   -4.189637|  -11.447837|    2.230482|
|         384|  6.8859e+00|   -4.362765|   -4.517123|   -4.708246|   -4.711710|   -4.192803|  -11.449700|    2.224386|
|         385|  6.8850e+00|   -4.365881|   -4.520855|   -4.710586|   -4.714031|   -4.195847|  -11.451420|    2.218434|
|         386|  6.8842e+00|   -4.368910|   -4.524222|   -4.712831|   -4.716260|   -4.198762|  -11.452994|    2.212605|
|         387|  6.8835e+00|   -4.371847|   -4.527211|   -4.714969|   -4.718394|   -4.201542|  -11.454405|    2.206894|
|         388|  6.8828e+00|   -4.374683|   -4.529800|   -4.716998|   -4.720421|   -4.204175|  -11.455644|    2.201295|
|         389|  6.8820e+00|   -4.377407|   -4.531973|   -4.718912|   -4.722332|   -4.206649|  -11.456701|    2.195805|
|         390|  6.8812e+00|   -4.380008|   -4.533712|   -4.720706|   -4.724112|   -4.208953|  -11.457563|    2.190425|
|         391|  6.8804e+00|   -4.382480|   -4.535010|   -4.722376|   -4.725758|   -4.211084|  -11.458225|    2.185156|
|         392|  6.8797e+00|   -4.384814|   -4.535858|   -4.723915|   -4.727262|   -4.213039|  -11.458682|    2.180003|
|         393|  6.8789e+00|   -4.387004|   -4.536245|   -4.725306|   -4.728621|   -4.214811|  -11.458936|    2.174973|
|         394|  6.8782e+00|   -4.389039|   -4.536167|   -4.726528|   -4.729825|   -4.216394|  -11.458989|    2.170074|
|         395|  6.8776e+00|   -4.390913|   -4.535626|   -4.727575|   -4.730863|   -4.217782|  -11.458833|    2.165317|
|         396|  6.8769e+00|   -4.392621|   -4.534632|   -4.728439|   -4.731726|   -4.218977|  -11.458458|    2.160713|
|         397|  6.8763e+00|   -4.394154|   -4.533198|   -4.729117|   -4.732403|   -4.219977|  -11.457852|    2.156275|
|         398|  6.8754e+00|   -4.395504|   -4.531348|   -4.729605|   -4.732890|   -4.220782|  -11.457009|    2.152014|
|         399|  6.8748e+00|   -4.396661|   -4.529110|   -4.729905|   -4.733181|   -4.221396|  -11.455911|    2.147939|
|         400|  6.8741e+00|   -4.397623|   -4.526514|   -4.730021|   -4.733282|   -4.221825|  -11.454552|    2.144062|
|         401|  6.8734e+00|   -4.398376|   -4.523589|   -4.729946|   -4.733192|   -4.222067|  -11.452907|    2.140389|
|         402|  6.8727e+00|   -4.398927|   -4.520375|   -4.729689|   -4.732922|   -4.222136|  -11.450970|    2.136927|
|         403|  6.8718e+00|   -4.399273|   -4.516911|   -4.729253|   -4.732480|   -4.222045|  -11.448742|    2.133679|
|         404|  6.8709e+00|   -4.399416|   -4.513240|   -4.728643|   -4.731873|   -4.221806|  -11.446216|    2.130647|
|         405|  6.8700e+00|   -4.399352|   -4.509404|   -4.727864|   -4.731100|   -4.221429|  -11.443396|    2.127832|
|         406|  6.8693e+00|   -4.399078|   -4.505447|   -4.726918|   -4.730166|   -4.220923|  -11.440279|    2.125231|
|         407|  6.8684e+00|   -4.398593|   -4.501413|   -4.725820|   -4.729074|   -4.220303|  -11.436870|    2.122841|
|         408|  6.8675e+00|   -4.397895|   -4.497340|   -4.724583|   -4.727835|   -4.219580|  -11.433185|    2.120655|
|         409|  6.8666e+00|   -4.396982|   -4.493272|   -4.723219|   -4.726457|   -4.218767|  -11.429240|    2.118666|
|         410|  6.8659e+00|   -4.395852|   -4.489243|   -4.721743|   -4.724955|   -4.217873|  -11.425052|    2.116865|
|         411|  6.8651e+00|   -4.394501|   -4.485287|   -4.720168|   -4.723339|   -4.216906|  -11.420647|    2.115243|
|         412|  6.8643e+00|   -4.392932|   -4.481435|   -4.718505|   -4.721619|   -4.215873|  -11.416053|    2.113791|
|         413|  6.8636e+00|   -4.391149|   -4.477716|   -4.716765|   -4.719807|   -4.214781|  -11.411305|    2.112497|
|         414|  6.8627e+00|   -4.389155|   -4.474154|   -4.714955|   -4.717915|   -4.213639|  -11.406442|    2.111352|
|         415|  6.8617e+00|   -4.386956|   -4.470767|   -4.713082|   -4.715955|   -4.212451|  -11.401502|    2.110347|
|         416|  6.8610e+00|   -4.384562|   -4.467570|   -4.711153|   -4.713939|   -4.211224|  -11.396519|    2.109474|
|         417|  6.8604e+00|   -4.381979|   -4.464572|   -4.709171|   -4.711878|   -4.209964|  -11.391533|    2.108725|
|         418|  6.8598e+00|   -4.379210|   -4.461780|   -4.707138|   -4.709774|   -4.208668|  -11.386590|    2.108094|
|         419|  6.8590e+00|   -4.376259|   -4.459195|   -4.705058|   -4.707625|   -4.207330|  -11.381710|    2.107575|
|         420|  6.8582e+00|   -4.373133|   -4.456809|   -4.702931|   -4.705429|   -4.205942|  -11.376919|    2.107165|
|         421|  6.8575e+00|   -4.369835|   -4.454611|   -4.700752|   -4.703176|   -4.204492|  -11.372253|    2.106859|
|         422|  6.8568e+00|   -4.366367|   -4.452586|   -4.698513|   -4.700859|   -4.202965|  -11.367726|    2.106655|
|         423|  6.8563e+00|   -4.362728|   -4.450714|   -4.696207|   -4.698464|   -4.201343|  -11.363352|    2.106549|
|         424|  6.8555e+00|   -4.358918|   -4.448970|   -4.693824|   -4.695978|   -4.199605|  -11.359141|    2.106539|
|         425|  6.8549e+00|   -4.354934|   -4.447326|   -4.691352|   -4.693389|   -4.197733|  -11.355081|    2.106623|
|         426|  6.8542e+00|   -4.350778|   -4.445751|   -4.688781|   -4.690684|   -4.195707|  -11.351159|    2.106798|
|         427|  6.8534e+00|   -4.346446|   -4.444211|   -4.686097|   -4.687846|   -4.193503|  -11.347365|    2.107064|
|         428|  6.8526e+00|   -4.341941|   -4.442671|   -4.683284|   -4.684860|   -4.191101|  -11.343678|    2.107422|
|         429|  6.8519e+00|   -4.337265|   -4.441093|   -4.680329|   -4.681713|   -4.188482|  -11.340031|    2.107870|
|         430|  6.8512e+00|   -4.332419|   -4.439439|   -4.677221|   -4.678393|   -4.185631|  -11.336356|    2.108413|
|         431|  6.8503e+00|   -4.327408|   -4.437669|   -4.673949|   -4.674893|   -4.182534|  -11.332618|    2.109053|
|         432|  6.8497e+00|   -4.322234|   -4.435746|   -4.670504|   -4.671207|   -4.179178|  -11.328765|    2.109795|
|         433|  6.8490e+00|   -4.316906|   -4.433634|   -4.666880|   -4.667335|   -4.175555|  -11.324794|    2.110645|
|         434|  6.8483e+00|   -4.311426|   -4.431301|   -4.663073|   -4.663276|   -4.171660|  -11.320609|    2.111607|
|         435|  6.8477e+00|   -4.305798|   -4.428715|   -4.659078|   -4.659031|   -4.167485|  -11.316178|    2.112689|
|         436|  6.8472e+00|   -4.300026|   -4.425851|   -4.654895|   -4.654603|   -4.163030|  -11.311443|    2.113895|
|         437|  6.8465e+00|   -4.294116|   -4.422688|   -4.650527|   -4.649999|   -4.158296|  -11.306384|    2.115233|
|         438|  6.8459e+00|   -4.288075|   -4.419207|   -4.645981|   -4.645226|   -4.153289|  -11.301006|    2.116704|
|         439|  6.8453e+00|   -4.281915|   -4.415402|   -4.641267|   -4.640292|   -4.148023|  -11.295319|    2.118313|
|         440|  6.8447e+00|   -4.275647|   -4.411270|   -4.636398|   -4.635208|   -4.142510|  -11.289352|    2.120060|
|         441|  6.8440e+00|   -4.269281|   -4.406814|   -4.631388|   -4.629986|   -4.136769|  -11.283129|    2.121946|
|         442|  6.8433e+00|   -4.262834|   -4.402046|   -4.626251|   -4.624639|   -4.130821|  -11.276656|    2.123969|
|         443|  6.8427e+00|   -4.256320|   -4.396984|   -4.621006|   -4.619185|   -4.124692|  -11.269976|    2.126124|
|         444|  6.8421e+00|   -4.249758|   -4.391651|   -4.615671|   -4.613642|   -4.118409|  -11.263164|    2.128406|
|         445|  6.8414e+00|   -4.243164|   -4.386075|   -4.610263|   -4.608032|   -4.112001|  -11.256286|    2.130811|
|         446|  6.8408e+00|   -4.236557|   -4.380289|   -4.604803|   -4.602376|   -4.105498|  -11.249379|    2.133330|
|         447|  6.8401e+00|   -4.229952|   -4.374328|   -4.599308|   -4.596695|   -4.098926|  -11.242443|    2.135956|
|         448|  6.8396e+00|   -4.223365|   -4.368228|   -4.593796|   -4.591010|   -4.092312|  -11.235541|    2.138681|
|         449|  6.8388e+00|   -4.216816|   -4.362029|   -4.588286|   -4.585342|   -4.085688|  -11.228721|    2.141497|
|         450|  6.8382e+00|   -4.210320|   -4.355765|   -4.582797|   -4.579706|   -4.079077|  -11.222019|    2.144396|
+-----------------------------------------------------------------------+
|        File Writing Summary       |              Filename             |
+-----------------------------------------------------------------------+
|SU2 binary restart                 |restart_flow.dat                   |
|Paraview                           |flow.vtu                           |
|Paraview surface                   |surface_flow.vtu                   |
+-----------------------------------------------------------------------+
+--------------------------------------------------------------------------------------------------------------------+
|  Inner_Iter|   Time(sec)|    rms[Rho]|   rms[RhoU]|   rms[RhoV]|   rms[RhoW]|   rms[RhoE]|     rms[nu]|          CD|
+--------------------------------------------------------------------------------------------------------------------+
|         451|  6.8883e+00|   -4.203890|   -4.349476|   -4.577346|   -4.574119|   -4.072505|  -11.215495|    2.147370|
|         452|  6.8880e+00|   -4.197545|   -4.343196|   -4.571952|   -4.568598|   -4.065996|  -11.209177|    2.150413|
|         453|  6.8875e+00|   -4.191297|   -4.336961|   -4.566629|   -4.563158|   -4.059574|  -11.203042|    2.153519|
|         454|  6.8867e+00|   -4.185158|   -4.330800|   -4.561390|   -4.557814|   -4.053256|  -11.197118|    2.156683|
|         455|  6.8860e+00|   -4.179140|   -4.324738|   -4.556246|   -4.552578|   -4.047060|  -11.191477|    2.159900|
|         456|  6.8855e+00|   -4.173251|   -4.318799|   -4.551210|   -4.547459|   -4.041001|  -11.186075|    2.163168|
|         457|  6.8848e+00|   -4.167502|   -4.313005|   -4.546290|   -4.542471|   -4.035091|  -11.180884|    2.166484|
|         458|  6.8843e+00|   -4.161900|   -4.307370|   -4.541496|   -4.537620|   -4.029341|  -11.175915|    2.169846|
|         459|  6.8838e+00|   -4.156454|   -4.301910|   -4.536838|   -4.532916|   -4.023762|  -11.171167|    2.173255|
|         460|  6.8831e+00|   -4.151165|   -4.296634|   -4.532317|   -4.528360|   -4.018357|  -11.166616|    2.176710|
|         461|  6.8825e+00|   -4.146037|   -4.291553|   -4.527937|   -4.523959|   -4.013130|  -11.162264|    2.180211|
|         462|  6.8819e+00|   -4.141073|   -4.286669|   -4.523700|   -4.519711|   -4.008084|  -11.158086|    2.183761|
|         463|  6.8811e+00|   -4.136271|   -4.281985|   -4.519605|   -4.515620|   -4.003216|  -11.154056|    2.187359|
|         464|  6.8803e+00|   -4.131634|   -4.277500|   -4.515652|   -4.511684|   -3.998529|  -11.150140|    2.191009|
|         465|  6.8796e+00|   -4.127173|   -4.273225|   -4.511851|   -4.507910|   -3.994034|  -11.146316|    2.194711|
|         466|  6.8789e+00|   -4.122888|   -4.269163|   -4.508201|   -4.504299|   -3.989731|  -11.142571|    2.198468|
|         467|  6.8784e+00|   -4.118772|   -4.265303|   -4.504695|   -4.500842|   -3.985611|  -11.138901|    2.202279|
|         468|  6.8777e+00|   -4.114825|   -4.261641|   -4.501331|   -4.497536|   -3.981669|  -11.135291|    2.206146|
|         469|  6.8771e+00|   -4.111054|   -4.258182|   -4.498113|   -4.494391|   -3.977916|  -11.131725|    2.210066|
|         470|  6.8764e+00|   -4.107454|   -4.254916|   -4.495034|   -4.491400|   -3.974343|  -11.128194|    2.214034|
|         471|  6.8757e+00|   -4.104018|   -4.251837|   -4.492088|   -4.488549|   -3.970938|  -11.124704|    2.218044|
|         472|  6.8750e+00|   -4.100741|   -4.248941|   -4.489273|   -4.485833|   -3.967699|  -11.121283|    2.222086|
|         473|  6.8743e+00|   -4.097626|   -4.246226|   -4.486584|   -4.483258|   -3.964627|  -11.117968|    2.226145|
|         474|  6.8735e+00|   -4.094662|   -4.243686|   -4.484017|   -4.480812|   -3.961712|  -11.114805|    2.230205|
|         475|  6.8729e+00|   -4.091844|   -4.241316|   -4.481567|   -4.478489|   -3.958947|  -11.111827|    2.234249|
|         476|  6.8722e+00|   -4.089173|   -4.239116|   -4.479237|   -4.476295|   -3.956338|  -11.109066|    2.238259|
|         477|  6.8716e+00|   -4.086643|   -4.237081|   -4.477029|   -4.474223|   -3.953877|  -11.106539|    2.242217|
|         478|  6.8710e+00|   -4.084246|   -4.235203|   -4.474939|   -4.472271|   -3.951558|  -11.104260|    2.246110|
|         479|  6.8705e+00|   -4.081971|   -4.233478|   -4.472956|   -4.470437|   -3.949371|  -11.102234|    2.249926|
|         480|  6.8697e+00|   -4.079819|   -4.231902|   -4.471081|   -4.468717|   -3.947317|  -11.100441|    2.253660|
|         481|  6.8690e+00|   -4.077780|   -4.230470|   -4.469312|   -4.467103|   -3.945387|  -11.098842|    2.257316|
|         482|  6.8684e+00|   -4.075848|   -4.229175|   -4.467641|   -4.465587|   -3.943575|  -11.097394|    2.260905|
|         483|  6.8678e+00|   -4.074020|   -4.228018|   -4.466064|   -4.464173|   -3.941881|  -11.096046|    2.264447|
|         484|  6.8671e+00|   -4.072301|   -4.226996|   -4.464580|   -4.462856|   -3.940309|  -11.094741|    2.267969|
|         485|  6.8665e+00|   -4.070688|   -4.226108|   -4.463192|   -4.461630|   -3.938855|  -11.093429|    2.271500|
|         486|  6.8658e+00|   -4.069180|   -4.225353|   -4.461894|   -4.460501|   -3.937520|  -11.092066|    2.275073|
|         487|  6.8652e+00|   -4.067770|   -4.224723|   -4.460682|   -4.459456|   -3.936295|  -11.090621|    2.278719|
|         488|  6.8647e+00|   -4.066444|   -4.224203|   -4.459541|   -4.458477|   -3.935161|  -11.089073|    2.282462|
|         489|  6.8641e+00|   -4.065200|   -4.223787|   -4.458464|   -4.457560|   -3.934117|  -11.087415|    2.286320|
|         490|  6.8635e+00|   -4.064034|   -4.223466|   -4.457453|   -4.456690|   -3.933157|  -11.085656|    2.290304|
|         491|  6.8629e+00|   -4.062944|   -4.223235|   -4.456503|   -4.455868|   -3.932278|  -11.083815|    2.294419|
|         492|  6.8622e+00|   -4.061925|   -4.223084|   -4.455608|   -4.455090|   -3.931475|  -11.081915|    2.298667|
|         493|  6.8616e+00|   -4.060974|   -4.223002|   -4.454770|   -4.454344|   -3.930741|  -11.079978|    2.303047|
|         494|  6.8609e+00|   -4.060089|   -4.222981|   -4.453996|   -4.453631|   -3.930075|  -11.078035|    2.307554|
|         495|  6.8605e+00|   -4.059267|   -4.223010|   -4.453280|   -4.452951|   -3.929468|  -11.076107|    2.312182|
|         496|  6.8599e+00|   -4.058502|   -4.223078|   -4.452625|   -4.452309|   -3.928915|  -11.074215|    2.316924|
|         497|  6.8592e+00|   -4.057789|   -4.223174|   -4.452024|   -4.451709|   -3.928407|  -11.072366|    2.321770|
|         498|  6.8587e+00|   -4.057121|   -4.223287|   -4.451474|   -4.451150|   -3.927935|  -11.070558|    2.326711|
|         499|  6.8582e+00|   -4.056495|   -4.223411|   -4.450974|   -4.450626|   -3.927493|  -11.068789|    2.331736|
|         500|  6.8576e+00|   -4.055911|   -4.223546|   -4.450528|   -4.450143|   -3.927087|  -11.067053|    2.336835|
|         501|  6.8570e+00|   -4.055366|   -4.223689|   -4.450133|   -4.449697|   -3.926714|  -11.065339|    2.342000|
|         502|  6.8565e+00|   -4.054865|   -4.223843|   -4.449792|   -4.449286|   -3.926378|  -11.063645|    2.347222|
|         503|  6.8558e+00|   -4.054399|   -4.224002|   -4.449492|   -4.448917|   -3.926072|  -11.061959|    2.352492|
|         504|  6.8553e+00|   -4.053969|   -4.224168|   -4.449240|   -4.448587|   -3.925798|  -11.060275|    2.357801|
|         505|  6.8548e+00|   -4.053592|   -4.224355|   -4.449051|   -4.448309|   -3.925580|  -11.058593|    2.363143|
|         506|  6.8542e+00|   -4.053256|   -4.224554|   -4.448917|   -4.448082|   -3.925403|  -11.056913|    2.368511|
|         507|  6.8536e+00|   -4.052962|   -4.224765|   -4.448830|   -4.447912|   -3.925264|  -11.055235|    2.373899|
|         508|  6.8530e+00|   -4.052699|   -4.224981|   -4.448779|   -4.447792|   -3.925150|  -11.053553|    2.379302|
|         509|  6.8524e+00|   -4.052471|   -4.225207|   -4.448769|   -4.447721|   -3.925068|  -11.051864|    2.384713|
|         510|  6.8520e+00|   -4.052281|   -4.225445|   -4.448796|   -4.447705|   -3.925021|  -11.050168|    2.390130|
|         511|  6.8512e+00|   -4.052129|   -4.225699|   -4.448869|   -4.447741|   -3.925009|  -11.048461|    2.395549|
|         512|  6.8507e+00|   -4.052018|   -4.225971|   -4.448989|   -4.447837|   -3.925035|  -11.046738|    2.400966|
|         513|  6.8502e+00|   -4.051955|   -4.226263|   -4.449163|   -4.448001|   -3.925107|  -11.044998|    2.406378|
|         514|  6.8496e+00|   -4.051944|   -4.226584|   -4.449400|   -4.448226|   -3.925232|  -11.043234|    2.411785|
|         515|  6.8490e+00|   -4.051976|   -4.226924|   -4.449689|   -4.448504|   -3.925396|  -11.041438|    2.417184|
|         516|  6.8484e+00|   -4.052054|   -4.227284|   -4.450032|   -4.448827|   -3.925601|  -11.039599|    2.422574|
|         517|  6.8478e+00|   -4.052184|   -4.227673|   -4.450435|   -4.449200|   -3.925860|  -11.037714|    2.427954|
|         518|  6.8473e+00|   -4.052364|   -4.228088|   -4.450889|   -4.449620|   -3.926168|  -11.035774|    2.433323|
|         519|  6.8469e+00|   -4.052598|   -4.228533|   -4.451397|   -4.450087|   -3.926528|  -11.033772|    2.438679|
|         520|  6.8463e+00|   -4.052887|   -4.229008|   -4.451965|   -4.450601|   -3.926943|  -11.031698|    2.444021|
|         521|  6.8456e+00|   -4.053246|   -4.229522|   -4.452595|   -4.451179|   -3.927430|  -11.029551|    2.449348|
|         522|  6.8449e+00|   -4.053677|   -4.230074|   -4.453276|   -4.451839|   -3.927987|  -11.027324|    2.454657|
|         523|  6.8443e+00|   -4.054167|   -4.230657|   -4.454007|   -4.452561|   -3.928596|  -11.025009|    2.459946|
|         524|  6.8438e+00|   -4.054733|   -4.231281|   -4.454807|   -4.453352|   -3.929276|  -11.022601|    2.465214|
|         525|  6.8433e+00|   -4.055371|   -4.231950|   -4.455659|   -4.454220|   -3.930023|  -11.020092|    2.470457|
|         526|  6.8427e+00|   -4.056073|   -4.232659|   -4.456564|   -4.455159|   -3.930830|  -11.017477|    2.475676|
|         527|  6.8421e+00|   -4.056833|   -4.233405|   -4.457518|   -4.456161|   -3.931687|  -11.014751|    2.480869|
|         528|  6.8415e+00|   -4.057649|   -4.234189|   -4.458524|   -4.457228|   -3.932597|  -11.011911|    2.486039|
|         529|  6.8410e+00|   -4.058524|   -4.235018|   -4.459583|   -4.458364|   -3.933566|  -11.008959|    2.491187|
|         530|  6.8405e+00|   -4.059467|   -4.235898|   -4.460718|   -4.459573|   -3.934610|  -11.005893|    2.496317|
|         531|  6.8398e+00|   -4.060477|   -4.236831|   -4.461921|   -4.460859|   -3.935725|  -11.002716|    2.501434|
|         532|  6.8392e+00|   -4.061544|   -4.237811|   -4.463183|   -4.462222|   -3.936898|  -10.999428|    2.506542|
|         533|  6.8386e+00|   -4.062665|   -4.238836|   -4.464504|   -4.463662|   -3.938131|  -10.996034|    2.511644|
|         534|  6.8380e+00|   -4.063843|   -4.239911|   -4.465890|   -4.465179|   -3.939430|  -10.992536|    2.516742|
|         535|  6.8373e+00|   -4.065072|   -4.241034|   -4.467345|   -4.466759|   -3.940785|  -10.988937|    2.521838|
|         536|  6.8366e+00|   -4.066349|   -4.242202|   -4.468858|   -4.468407|   -3.942195|  -10.985241|    2.526931|
|         537|  6.8362e+00|   -4.067669|   -4.243414|   -4.470421|   -4.470115|   -3.943652|  -10.981453|    2.532020|
|         538|  6.8356e+00|   -4.069038|   -4.244677|   -4.472036|   -4.471887|   -3.945166|  -10.977574|    2.537103|
[...]
|        5801|  6.7981e+00|   -7.865092|   -7.878332|   -8.286344|   -8.274864|   -7.721996|   -8.847486|    2.617797|
|        5802|  6.7981e+00|   -7.865466|   -7.880275|   -8.287137|   -8.274288|   -7.722739|   -8.848782|    2.617800|
|        5803|  6.7982e+00|   -7.865828|   -7.882233|   -8.287924|   -8.273719|   -7.723479|   -8.850080|    2.617802|
|        5804|  6.7982e+00|   -7.866181|   -7.884205|   -8.288706|   -8.273159|   -7.724216|   -8.851381|    2.617805|
|        5805|  6.7983e+00|   -7.866525|   -7.886188|   -8.289484|   -8.272612|   -7.724952|   -8.852685|    2.617807|
|        5806|  6.7983e+00|   -7.866862|   -7.888183|   -8.290259|   -8.272080|   -7.725687|   -8.853990|    2.617809|
|        5807|  6.7984e+00|   -7.867192|   -7.890185|   -8.291031|   -8.271565|   -7.726422|   -8.855298|    2.617811|
|        5808|  6.7984e+00|   -7.867518|   -7.892195|   -8.291803|   -8.271071|   -7.727156|   -8.856607|    2.617813|
|        5809|  6.7985e+00|   -7.867841|   -7.894210|   -8.292575|   -8.270600|   -7.727890|   -8.857917|    2.617815|
|        5810|  6.7985e+00|   -7.868163|   -7.896227|   -8.293349|   -8.270153|   -7.728626|   -8.859229|    2.617817|
|        5811|  6.7986e+00|   -7.868485|   -7.898244|   -8.294126|   -8.269735|   -7.729364|   -8.860542|    2.617819|
|        5812|  6.7986e+00|   -7.868808|   -7.900260|   -8.294908|   -8.269347|   -7.730104|   -8.861855|    2.617821|
|        5813|  6.7987e+00|   -7.869136|   -7.902271|   -8.295695|   -8.268991|   -7.730847|   -8.863169|    2.617823|
|        5814|  6.7987e+00|   -7.869468|   -7.904276|   -8.296490|   -8.268669|   -7.731593|   -8.864483|    2.617824|
|        5815|  6.7988e+00|   -7.869807|   -7.906270|   -8.297294|   -8.268384|   -7.732343|   -8.865797|    2.617826|
|        5816|  6.7988e+00|   -7.870155|   -7.908253|   -8.298108|   -8.268137|   -7.733098|   -8.867111|    2.617827|
|        5817|  6.7988e+00|   -7.870512|   -7.910221|   -8.298934|   -8.267930|   -7.733858|   -8.868424|    2.617829|
|        5818|  6.7989e+00|   -7.870881|   -7.912171|   -8.299774|   -8.267765|   -7.734625|   -8.869737|    2.617830|
|        5819|  6.7989e+00|   -7.871264|   -7.914101|   -8.300628|   -8.267643|   -7.735397|   -8.871048|    2.617831|
|        5820|  6.7990e+00|   -7.871662|   -7.916007|   -8.301499|   -8.267567|   -7.736177|   -8.872358|    2.617832|
|        5821|  6.7990e+00|   -7.872076|   -7.917887|   -8.302388|   -8.267537|   -7.736964|   -8.873666|    2.617833|
|        5822|  6.7990e+00|   -7.872509|   -7.919738|   -8.303296|   -8.267554|   -7.737759|   -8.874972|    2.617834|
|        5823|  6.7991e+00|   -7.872961|   -7.921557|   -8.304225|   -8.267620|   -7.738562|   -8.876275|    2.617834|
|        5824|  6.7991e+00|   -7.873434|   -7.923342|   -8.305176|   -8.267737|   -7.739375|   -8.877576|    2.617835|
|        5825|  6.7992e+00|   -7.873930|   -7.925089|   -8.306151|   -8.267903|   -7.740197|   -8.878874|    2.617835|
|        5826|  6.7992e+00|   -7.874449|   -7.926796|   -8.307150|   -8.268122|   -7.741030|   -8.880169|    2.617836|
|        5827|  6.7992e+00|   -7.874994|   -7.928461|   -8.308176|   -8.268392|   -7.741872|   -8.881460|    2.617836|
|        5828|  6.7993e+00|   -7.875566|   -7.930081|   -8.309229|   -8.268715|   -7.742726|   -8.882747|    2.617836|
|        5829|  6.7993e+00|   -7.876165|   -7.931653|   -8.310310|   -8.269092|   -7.743591|   -8.884029|    2.617836|
|        5830|  6.7994e+00|   -7.876793|   -7.933176|   -8.311420|   -8.269521|   -7.744467|   -8.885307|    2.617836|
|        5831|  6.7994e+00|   -7.877451|   -7.934648|   -8.312561|   -8.270004|   -7.745356|   -8.886580|    2.617836|
|        5832|  6.7994e+00|   -7.878140|   -7.936066|   -8.313734|   -8.270540|   -7.746256|   -8.887848|    2.617835|
|        5833|  6.7995e+00|   -7.878861|   -7.937429|   -8.314939|   -8.271130|   -7.747170|   -8.889110|    2.617835|
|        5834|  6.7995e+00|   -7.879615|   -7.938735|   -8.316177|   -8.271773|   -7.748097|   -8.890365|    2.617834|
|        5835|  6.7996e+00|   -7.880402|   -7.939984|   -8.317449|   -8.272468|   -7.749036|   -8.891614|    2.617834|
|        5836|  6.7996e+00|   -7.881224|   -7.941173|   -8.318756|   -8.273216|   -7.749989|   -8.892857|    2.617833|
|        5837|  6.7997e+00|   -7.882081|   -7.942303|   -8.320098|   -8.274015|   -7.750956|   -8.894092|    2.617832|
|        5838|  6.7997e+00|   -7.882973|   -7.943372|   -8.321476|   -8.274865|   -7.751937|   -8.895320|    2.617831|
|        5839|  6.7997e+00|   -7.883901|   -7.944381|   -8.322890|   -8.275764|   -7.752931|   -8.896540|    2.617830|
|        5840|  6.7998e+00|   -7.884866|   -7.945328|   -8.324342|   -8.276712|   -7.753940|   -8.897751|    2.617829|
|        5841|  6.7998e+00|   -7.885867|   -7.946215|   -8.325830|   -8.277708|   -7.754963|   -8.898954|    2.617827|
|        5842|  6.7999e+00|   -7.886905|   -7.947041|   -8.327355|   -8.278750|   -7.756000|   -8.900148|    2.617826|
|        5843|  6.7999e+00|   -7.887980|   -7.947807|   -8.328919|   -8.279837|   -7.757051|   -8.901332|    2.617824|
|        5844|  6.8000e+00|   -7.889092|   -7.948513|   -8.330519|   -8.280967|   -7.758117|   -8.902507|    2.617822|
|        5845|  6.8000e+00|   -7.890242|   -7.949162|   -8.332157|   -8.282139|   -7.759196|   -8.903671|    2.617820|
|        5846|  6.8001e+00|   -7.891428|   -7.949754|   -8.333833|   -8.283351|   -7.760290|   -8.904825|    2.617819|
|        5847|  6.8001e+00|   -7.892651|   -7.950291|   -8.335546|   -8.284601|   -7.761399|   -8.905968|    2.617816|
|        5848|  6.8001e+00|   -7.893910|   -7.950775|   -8.337296|   -8.285886|   -7.762521|   -8.907100|    2.617814|
|        5849|  6.8002e+00|   -7.895206|   -7.951207|   -8.339083|   -8.287205|   -7.763657|   -8.908220|    2.617812|
|        5850|  6.8002e+00|   -7.896536|   -7.951590|   -8.340906|   -8.288556|   -7.764807|   -8.909328|    2.617809|
+-----------------------------------------------------------------------+
|        File Writing Summary       |              Filename             |
+-----------------------------------------------------------------------+
|SU2 binary restart                 |restart_flow.dat                   |
|Paraview                           |flow.vtu                           |
|Paraview surface                   |surface_flow.vtu                   |
+-----------------------------------------------------------------------+
+--------------------------------------------------------------------------------------------------------------------+
|  Inner_Iter|   Time(sec)|    rms[Rho]|   rms[RhoU]|   rms[RhoV]|   rms[RhoW]|   rms[RhoE]|     rms[nu]|          CD|
+--------------------------------------------------------------------------------------------------------------------+
|        5851|  6.8041e+00|   -7.897902|   -7.951926|   -8.342764|   -8.289936|   -7.765970|   -8.910424|    2.617807|
|        5852|  6.8041e+00|   -7.899303|   -7.952218|   -8.344658|   -8.291342|   -7.767147|   -8.911506|    2.617804|
|        5853|  6.8042e+00|   -7.900737|   -7.952468|   -8.346586|   -8.292773|   -7.768338|   -8.912576|    2.617802|
|        5854|  6.8042e+00|   -7.902203|   -7.952680|   -8.348548|   -8.294225|   -7.769541|   -8.913633|    2.617799|
|        5855|  6.8043e+00|   -7.903702|   -7.952857|   -8.350543|   -8.295696|   -7.770757|   -8.914675|    2.617796|
|        5856|  6.8043e+00|   -7.905232|   -7.953001|   -8.352569|   -8.297183|   -7.771986|   -8.915704|    2.617793|
|        5857|  6.8043e+00|   -7.906792|   -7.953116|   -8.354627|   -8.298683|   -7.773227|   -8.916718|    2.617789|
|        5858|  6.8044e+00|   -7.908380|   -7.953205|   -8.356714|   -8.300193|   -7.774480|   -8.917717|    2.617786|
|        5859|  6.8044e+00|   -7.909996|   -7.953273|   -8.358829|   -8.301711|   -7.775745|   -8.918701|    2.617783|
|        5860|  6.8044e+00|   -7.911639|   -7.953321|   -8.360972|   -8.303233|   -7.777022|   -8.919669|    2.617779|
|        5861|  6.8045e+00|   -7.913306|   -7.953355|   -8.363141|   -8.304756|   -7.778309|   -8.920622|    2.617776|
|        5862|  6.8045e+00|   -7.914998|   -7.953377|   -8.365334|   -8.306277|   -7.779607|   -8.921559|    2.617772|
|        5863|  6.8046e+00|   -7.916711|   -7.953391|   -8.367550|   -8.307794|   -7.780916|   -8.922479|    2.617768|
|        5864|  6.8046e+00|   -7.918445|   -7.953401|   -8.369788|   -8.309303|   -7.782235|   -8.923382|    2.617765|
|        5865|  6.8046e+00|   -7.920198|   -7.953410|   -8.372046|   -8.310801|   -7.783564|   -8.924269|    2.617761|
|        5866|  6.8047e+00|   -7.921969|   -7.953422|   -8.374322|   -8.312285|   -7.784902|   -8.925138|    2.617757|
|        5867|  6.8047e+00|   -7.923756|   -7.953440|   -8.376614|   -8.313753|   -7.786250|   -8.925989|    2.617753|
|        5868|  6.8047e+00|   -7.925556|   -7.953469|   -8.378921|   -8.315201|   -7.787606|   -8.926823|    2.617749|
|        5869|  6.8048e+00|   -7.927369|   -7.953511|   -8.381241|   -8.316626|   -7.788971|   -8.927639|    2.617745|
|        5870|  6.8048e+00|   -7.929192|   -7.953570|   -8.383571|   -8.318027|   -7.790343|   -8.928436|    2.617740|
|        5871|  6.8048e+00|   -7.931024|   -7.953649|   -8.385911|   -8.319400|   -7.791724|   -8.929215|    2.617736|
|        5872|  6.8049e+00|   -7.932862|   -7.953751|   -8.388258|   -8.320742|   -7.793112|   -8.929974|    2.617732|
|        5873|  6.8049e+00|   -7.934706|   -7.953881|   -8.390609|   -8.322053|   -7.794506|   -8.930715|    2.617727|
|        5874|  6.8050e+00|   -7.936552|   -7.954039|   -8.392964|   -8.323328|   -7.795908|   -8.931437|    2.617723|
|        5875|  6.8050e+00|   -7.938400|   -7.954231|   -8.395320|   -8.324567|   -7.797316|   -8.932139|    2.617718|
|        5876|  6.8050e+00|   -7.940247|   -7.954457|   -8.397674|   -8.325768|   -7.798730|   -8.932821|    2.617714|
|        5877|  6.8051e+00|   -7.942091|   -7.954722|   -8.400025|   -8.326928|   -7.800149|   -8.933484|    2.617709|
|        5878|  6.8051e+00|   -7.943930|   -7.955028|   -8.402371|   -8.328046|   -7.801574|   -8.934127|    2.617704|
|        5879|  6.8051e+00|   -7.945763|   -7.955377|   -8.404710|   -8.329121|   -7.803004|   -8.934749|    2.617700|
|        5880|  6.8052e+00|   -7.947588|   -7.955772|   -8.407039|   -8.330153|   -7.804439|   -8.935352|    2.617695|
|        5881|  6.8052e+00|   -7.949402|   -7.956214|   -8.409357|   -8.331139|   -7.805878|   -8.935934|    2.617690|
|        5882|  6.8053e+00|   -7.951205|   -7.956706|   -8.411661|   -8.332079|   -7.807321|   -8.936495|    2.617685|
|        5883|  6.8053e+00|   -7.952994|   -7.957251|   -8.413950|   -8.332974|   -7.808768|   -8.937036|    2.617681|
|        5884|  6.8053e+00|   -7.954768|   -7.957849|   -8.416222|   -8.333823|   -7.810218|   -8.937556|    2.617676|
|        5885|  6.8053e+00|   -7.956525|   -7.958502|   -8.418474|   -8.334625|   -7.811672|   -8.938056|    2.617671|
|        5886|  6.8054e+00|   -7.958264|   -7.959212|   -8.420704|   -8.335381|   -7.813129|   -8.938535|    2.617666|
|        5887|  6.8054e+00|   -7.959983|   -7.959981|   -8.422912|   -8.336092|   -7.814589|   -8.938992|    2.617661|
|        5888|  6.8054e+00|   -7.961680|   -7.960810|   -8.425095|   -8.336759|   -7.816051|   -8.939429|    2.617657|
|        5889|  6.8055e+00|   -7.963355|   -7.961699|   -8.427252|   -8.337382|   -7.817515|   -8.939845|    2.617652|
|        5890|  6.8055e+00|   -7.965006|   -7.962649|   -8.429381|   -8.337962|   -7.818982|   -8.940241|    2.617647|
|        5891|  6.8056e+00|   -7.966633|   -7.963663|   -8.431480|   -8.338501|   -7.820450|   -8.940615|    2.617642|
|        5892|  6.8056e+00|   -7.968233|   -7.964739|   -8.433549|   -8.339000|   -7.821920|   -8.940968|    2.617637|
|        5893|  6.8057e+00|   -7.969807|   -7.965879|   -8.435585|   -8.339462|   -7.823392|   -8.941301|    2.617633|
|        5894|  6.8057e+00|   -7.971353|   -7.967083|   -8.437588|   -8.339888|   -7.824864|   -8.941612|    2.617628|
|        5895|  6.8057e+00|   -7.972870|   -7.968351|   -8.439556|   -8.340280|   -7.826338|   -8.941903|    2.617623|
|        5896|  6.8058e+00|   -7.974359|   -7.969683|   -8.441489|   -8.340641|   -7.827812|   -8.942174|    2.617619|
|        5897|  6.8058e+00|   -7.975818|   -7.971078|   -8.443385|   -8.340973|   -7.829287|   -8.942424|    2.617614|
|        5898|  6.8059e+00|   -7.977247|   -7.972538|   -8.445244|   -8.341278|   -7.830762|   -8.942653|    2.617609|
|        5899|  6.8059e+00|   -7.978647|   -7.974060|   -8.447065|   -8.341559|   -7.832237|   -8.942862|    2.617605|
|        5900|  6.8060e+00|   -7.980016|   -7.975645|   -8.448848|   -8.341819|   -7.833712|   -8.943051|    2.617600|
|        5901|  6.8060e+00|   -7.981355|   -7.977292|   -8.450591|   -8.342060|   -7.835187|   -8.943219|    2.617596|
|        5902|  6.8061e+00|   -7.982663|   -7.978999|   -8.452295|   -8.342286|   -7.836661|   -8.943368|    2.617592|
|        5903|  6.8061e+00|   -7.983942|   -7.980766|   -8.453960|   -8.342500|   -7.838134|   -8.943497|    2.617587|
|        5904|  6.8061e+00|   -7.985191|   -7.982591|   -8.455584|   -8.342704|   -7.839607|   -8.943607|    2.617583|
|        5905|  6.8062e+00|   -7.986411|   -7.984472|   -8.457170|   -8.342901|   -7.841078|   -8.943697|    2.617579|
|        5906|  6.8062e+00|   -7.987602|   -7.986409|   -8.458715|   -8.343095|   -7.842547|   -8.943768|    2.617575|
|        5907|  6.8063e+00|   -7.988766|   -7.988398|   -8.460221|   -8.343287|   -7.844015|   -8.943820|    2.617571|
|        5908|  6.8063e+00|   -7.989901|   -7.990439|   -8.461688|   -8.343483|   -7.845480|   -8.943854|    2.617567|
|        5909|  6.8063e+00|   -7.991011|   -7.992528|   -8.463116|   -8.343683|   -7.846943|   -8.943869|    2.617563|
|        5910|  6.8064e+00|   -7.992094|   -7.994664|   -8.464506|   -8.343891|   -7.848404|   -8.943866|    2.617559|
|        5911|  6.8064e+00|   -7.993152|   -7.996844|   -8.465858|   -8.344111|   -7.849861|   -8.943845|    2.617556|
|        5912|  6.8064e+00|   -7.994187|   -7.999065|   -8.467174|   -8.344344|   -7.851315|   -8.943806|    2.617552|
|        5913|  6.8064e+00|   -7.995199|   -8.001324|   -8.468452|   -8.344593|   -7.852765|   -8.943751|    2.617549|
|        5914|  6.8065e+00|   -7.996189|   -8.003618|   -8.469695|   -8.344861|   -7.854211|   -8.943678|    2.617545|
|        5915|  6.8065e+00|   -7.997159|   -8.005944|   -8.470904|   -8.345151|   -7.855653|   -8.943588|    2.617542|
|        5916|  6.8066e+00|   -7.998109|   -8.008297|   -8.472078|   -8.345464|   -7.857089|   -8.943483|    2.617539|
|        5917|  6.8066e+00|   -7.999041|   -8.010675|   -8.473219|   -8.345804|   -7.858520|   -8.943361|    2.617536|
|        5918|  6.8066e+00|   -7.999956|   -8.013074|   -8.474329|   -8.346171|   -7.859945|   -8.943224|    2.617533|
|        5919|  6.8067e+00|   -8.000855|   -8.015490|   -8.475407|   -8.346568|   -7.861363|   -8.943071|    2.617530|

----------------------------- Solver Exit -------------------------------
All convergence criteria satisfied.
+-----------------------------------------------------------------------+
|      Convergence Field     |     Value    |   Criterion  |  Converged |
+-----------------------------------------------------------------------+
|                    rms[Rho]|      -8.00085|          < -8|         Yes|
+-----------------------------------------------------------------------+
-------------------------------------------------------------------------
+-----------------------------------------------------------------------+
|        File Writing Summary       |              Filename             |
+-----------------------------------------------------------------------+
|SU2 binary restart                 |restart_flow.dat                   |
|Paraview                           |flow.vtu                           |
|Paraview surface                   |surface_flow.vtu                   |
+-----------------------------------------------------------------------+

------------------------- Solver Postprocessing -------------------------
Deleted CNumerics container.
Deleted CIntegration container.
Deleted CSolver container.
Deleted CIteration container.
Deleted CInterface container.
Deleted CGeometry container.
Deleted CFreeFormDefBox class.
Deleted CSurfaceMovement class.
Deleted CVolumetricMovement class.
Deleted CConfig container.
Deleted nInst container.
Deleted COutput class.
-------------------------------------------------------------------------

------------------------- Exit Success (SU2_CFD) ------------------------


scontrol show job 1228482
JobId=1228482 JobName=m1.5_aoa0
   UserId=anthonyy(3152141) GroupId=anthonyy(3152141) MCS_label=N/A
   Priority=659243 Nice=0 Account=rrg-jphickey QOS=normal
   JobState=COMPLETING Reason=None Dependency=(null)
   Requeue=0 Restarts=0 BatchFlag=1 Reboot=0 ExitCode=0:0
   RunTime=11:21:50 TimeLimit=18:00:00 TimeMin=N/A
   SubmitTime=2026-03-25T02:35:45 EligibleTime=2026-03-25T02:35:45
   AccrueTime=2026-03-25T02:35:45
   StartTime=2026-03-25T16:57:24 EndTime=2026-03-26T04:19:14 Deadline=N/A
   SuspendTime=None SecsPreSuspend=0 LastSchedEval=2026-03-25T16:57:24 Scheduler=Backfill
   Partition=compute AllocNode:Sid=tri-login01:1156378
   ReqNodeList=(null) ExcNodeList=(null)
   NodeList=tri[0835-0836]
   BatchHost=tri0835
   NumNodes=2 NumCPUs=384 NumTasks=128 CPUs/Task=1 ReqB:S:C:T=0:0:*:*
   ReqTRES=cpu=384,mem=1534000M,node=2,billing=384
   AllocTRES=cpu=384,mem=1534000M,node=2,billing=384
   Socks/Node=* NtasksPerN:B:S:C=64:0:*:* CoreSpec=*
   MinCPUsNode=64 MinMemoryNode=0 MinTmpDiskNode=0
   Features=(null) DelayBoot=00:00:00
   OverSubscribe=NO Contiguous=0 Licenses=(null) LicensesAlloc=(null) Network=(null)
   Command=/scratch/anthonyy/reentry/orion/config/run.sh
   SubmitLine=SBATCH --comment /opt/slurm/bin/sbatch --export=NONE --get-user-env --job-name m1.5_aoa0 --nodes 2 --ntasks-per-node 64 --cpus-per-task 1 --mem 0 --time 18:00:00 --account rrg-jphickey --output orion_%j.out --error orion_%j.err --chdir /scratch/anthonyy/reentry/orion/cases/m1.5_aoa0 /scratch/anthonyy/reentry/orion/config/run.sh /scratch/anthonyy/reentry/orion/config/generated/m1.5_aoa0.cfg --export=NONE --get-user-env --job-name m1.5_aoa0 --nodes 2 --ntasks-per-node 64 --cpus-per-task 1 --mem 0 --time 18:00:00 --account rrg-jphickey --output orion_%j.out --error orion_%j.err --chdir /scratch/anthonyy/reentry/orion/cases/m1.5_aoa0 /scratch/anthonyy/reentry/orion/config/run.sh /scratch/anthonyy/reentry/orion/config/generated/m1.5_aoa0.cfg
   WorkDir=/scratch/anthonyy/reentry/orion/cases/m1.5_aoa0
   Comment=/opt/slurm/bin/sbatch --export=NONE --get-user-env --job-name m1.5_aoa0 --nodes 2 --ntasks-per-node 64 --cpus-per-task 1 --mem 0 --time 18:00:00 --account rrg-jphickey --output orion_%j.out --error orion_%j.err --chdir /scratch/anthonyy/reentry/orion/cases/m1.5_aoa0 /scratch/anthonyy/reentry/orion/config/run.sh /scratch/anthonyy/reentry/orion/config/generated/m1.5_aoa0.cfg
   StdErr=/scratch/anthonyy/reentry/orion/cases/m1.5_aoa0/orion_1228482.err
   StdIn=/dev/null
   StdOut=/scratch/anthonyy/reentry/orion/cases/m1.5_aoa0/orion_1228482.out
   TresPerTask=cpu=1

sacct -j 1228482
JobID           JobName    Account    Elapsed  MaxVMSize     MaxRSS  SystemCPU    UserCPU ExitCode 
------------ ---------- ---------- ---------- ---------- ---------- ---------- ---------- -------- 
1228482       m1.5_aoa0 rrg-jphic+   11:21:50                         06:41:06 59-13:42:+      0:0 
1228482.bat+      batch rrg-jphic+   11:21:50          0     22912K  00:00.193  00:00.637      0:0 
1228482.ext+     extern rrg-jphic+   11:21:50                         00:00:00   00:00:00      0:0 
1228482.0       SU2_CFD rrg-jphic+   11:21:05          0  10777904K   06:41:05 59-13:42:+      0:0 

