Nodes:  tri[0058-0059]
Tasks:  128
NPN:    64
Config: /scratch/anthonyy/reentry/orion/config/generated/m6_aoa40.cfg

-------------------------------------------------------------------------
|    ___ _   _ ___                                                      |
|   / __| | | |_  )   Release 7.5.1 "Blackbird"                         |
|   \__ \ |_| |/ /                                                      |
|   |___/\___//___|   Suite (Computational Fluid Dynamics Code)         |
|                                                                       |
-------------------------------------------------------------------------
| SU2 Project Website: https://su2code.github.io                        |
|                                                                       |
| The SU2 Project is maintained by the SU2 Foundation                   |
| (http://su2foundation.org)                                            |
-------------------------------------------------------------------------
| Copyright 2012-2023, SU2 Contributors                                 |
|                                                                       |
| SU2 is free software; you can redistribute it and/or                  |
| modify it under the terms of the GNU Lesser General Public            |
| License as published by the Free Software Foundation; either          |
| version 2.1 of the License, or (at your option) any later version.    |
|                                                                       |
| SU2 is distributed in the hope that it will be useful,                |
| but WITHOUT ANY WARRANTY; without even the implied warranty of        |
| MERCHANTABILITY or FITNESS FOR A PARTICULAR PURPOSE. See the GNU      |
| Lesser General Public License for more details.                       |
|                                                                       |
| You should have received a copy of the GNU Lesser General Public      |
| License along with SU2. If not, see <http://www.gnu.org/licenses/>.   |
-------------------------------------------------------------------------

Parsing config file for zone 0

----------------- Physical Case Definition ( Zone 0 ) -------------------
Compressible RANS equations.
Turbulence model: Spalart-Allmaras-noft2
Hybrid RANS/LES: No Hybrid RANS/LES
Mach number: 6.
Angle of attack (AoA): 40 deg, and angle of sideslip (AoS): 0 deg.
Reynolds number: 6.86229e+08. Reference length 5.
Reading and writing binary SU2 native restart files.
Read flow solution from: restart_flow.dat.
Non-Dimensional simulation (V=1.0, Rho=1.0, T=1.0 at the farfield).
The reference area will be computed using y(2D) or z(3D) projection.
The semi-span will be computed using the max y(3D) value.
The reference length is 0.64607 m.
Reference origin for moment evaluation is (0.25, 0, 0).
Surface(s) where the force coefficients are evaluated: ORION_SURFACE.

Input mesh file name: ../../mesh/fine.su2

--------------- Space Numerical Integration ( Zone 0 ) ------------------
Jameson-Schmidt-Turkel scheme (2nd order in space) for the flow inviscid terms.
JST viscous coefficients (2nd & 4th): 0.5, 0.02.
The method includes a grid stretching correction (p = 0.3).
Scalar upwind solver for the turbulence model.
First order integration in space.
Average of gradients with correction (viscous flow terms).
Average of gradients with correction (viscous turbulence terms).
Gradient for upwind reconstruction: Green-Gauss.
Gradient for viscous and source terms: Green-Gauss.

--------------- Time Numerical Integration  ( Zone 0 ) ------------------
Local time stepping (steady state simulation).
Euler implicit method for the flow equations.
FGMRES is used for solving the linear system.
Using a ILU(0) preconditioning.
Convergence criteria of the linear solver: 1e-06.
Max number of linear iterations: 100.
CFL adaptation. Factor down: 0.5, factor up: 1.1,
                lower limit: 0.05, upper limit: 0.5,
                acceptable linear residual: 0.001.
Courant-Friedrichs-Lewy number:     0.03
Euler implicit time integration for the turbulence model.

------------------ Convergence Criteria  ( Zone 0 ) ---------------------
Maximum number of solver subiterations: 999999.
Begin convergence monitoring at iteration 5.
Residual minimum value: 1e-8.
Cauchy series min. value: 1e-10.
Number of Cauchy elements: 100.
Begin windowed time average at iteration 0.

-------------------- Output Information ( Zone 0 ) ----------------------
File writing frequency: 
+------------------------------------+
|                     File| Frequency|
+------------------------------------+
|                  RESTART|       150|
|                 PARAVIEW|       150|
|         SURFACE_PARAVIEW|       150|
+------------------------------------+
Writing the convergence history file every 1 inner iterations.
Writing the screen convergence history every 1 inner iterations.
The tabular file format is CSV (.csv).
Convergence history file name: history.
Forces breakdown file name: forces_breakdown.dat.
Surface file name: surface_flow.
Volume file name: flow.
Restart file name: restart_flow.

------------- Config File Boundary Information ( Zone 0 ) ---------------
+-----------------------------------------------------------------------+
|                        Marker Type|                        Marker Name|
+-----------------------------------------------------------------------+
|                          Far-field|                           FARFIELD|
+-----------------------------------------------------------------------+
|                     Heat flux wall|                      ORION_SURFACE|
+-----------------------------------------------------------------------+

-------------------- Output Preprocessing ( Zone 0 ) --------------------

WARNING: SURFACE_PRESSURE_DROP can only be computed for at least 2 surfaces (outlet, inlet, ...)

Screen output fields: INNER_ITER, WALL_TIME, RMS_DENSITY, RMS_MOMENTUM-X, RMS_MOMENTUM-Y, RMS_MOMENTUM-Z, RMS_ENERGY, RMS_NU_TILDE, DRAG
History output group(s): ITER, RMS_RES
Convergence field(s): RMS_DENSITY
Warning: No (valid) fields chosen for time convergence monitoring. Time convergence monitoring inactive.
Volume output fields: MACH, PRESSURE, TEMPERATURE, DENSITY, HEAT_FLUX, Y_PLUS, COORDINATES, SOLUTION

------------------- Geometry Preprocessing ( Zone 0 ) -------------------
Three dimensional problem.
62211324 grid points before partitioning.
190879888 volume elements before partitioning.
2 surface markers.
4104 boundary elements in index 0 (Marker = FARFIELD).
1824836 boundary elements in index 1 (Marker = ORION_SURFACE).
Executing the partitioning functions.
Building the graph adjacency structure.
Calling ParMETIS... graph partitioning complete (4959327 edge cuts).
Distributing ParMETIS coloring.
Rebalancing vertices.
Rebalancing volume element connectivity.
Rebalancing markers and surface elements.
66952290 vertices including ghost points. 
197997438 interior elements including halo cells. 
103171259 tetrahedra.
94500655 prisms.
325524 pyramids.
Establishing MPI communication patterns.
Setting point connectivity.
Renumbering points (Reverse Cuthill McKee Ordering).
Recomputing point connectivity.
Setting element connectivity.
Checking the numerical grid orientation.
All volume elements are correctly orientend.
All surface elements are correctly orientend.
Identifying edges and vertices.
Setting the control volume structure.
Volume of the computational grid: 535693.
Searching for the closest normal neighbors to the surfaces.
Storing a mapping from global to local point index.
Compute the surface curvature.
Max K: 132.896. Mean K: 3.9104. Standard deviation K: 7.49569.
Checking for periodicity.
Computing mesh quality statistics for the dual control volumes.
+--------------------------------------------------------------+
|           Mesh Quality Metric|        Minimum|        Maximum|
+--------------------------------------------------------------+
|    Orthogonality Angle (deg.)|        53.0661|             90|
|     CV Face Area Aspect Ratio|        1.01143|        75298.5|
|           CV Sub-Volume Ratio|        1.00029|        45.0258|
+--------------------------------------------------------------+
Finding max control volume width.
Communicating number of neighbors.
Reference area = 11.531 m^2.
Semi-span length = 2.49999 m.
Wetted area = 57.9072 m^2.
Area projection in the x-plane = 19.6343 m^2, y-plane = 11.531 m^2, z-plane = 11.531 m^2.
Max. coordinate in the x-direction = 2.575 m, y-direction = 2.49999 m, z-direction = 2.49999 m.
Min. coordinate in the x-direction = -0.71 m, y-direction = -2.49999 m, z-direction = -2.5 m.
Computing wall distances.

-------------------- Solver Preprocessing ( Zone 0 ) --------------------
Viscous flow: Computing pressure using the ideal gas law
based on the free-stream temperature and a density computed
from the Reynolds number.
Force coefficients computed using free-stream values.

-- Models:
+------------------------------------------------------------------------------+
|          Viscosity Model|        Conductivity Model|              Fluid Model|
+------------------------------------------------------------------------------+
|               SUTHERLAND|          CONSTANT_PRANDTL|             STANDARD_AIR|
+------------------------------------------------------------------------------+
-- Fluid properties:
+------------------------------------------------------------------------------+
|                  Name|    Dim. value|    Ref. value|      Unit|Non-dim. value|
+------------------------------------------------------------------------------+
|        Ref. Viscosity|     1.716e-05|       2455.73|   N.s/m^2|   6.98773e-09|
|      Sutherland Temp.|        273.15|        288.15|         K|      0.947944|
|     Sutherland Const.|         110.4|        288.15|         K|      0.383134|
+------------------------------------------------------------------------------+
|        Prandtl (Lam.)|             -|             -|         -|          0.72|
|       Prandtl (Turb.)|             -|             -|         -|           0.9|
+------------------------------------------------------------------------------+
|          Gas Constant|       287.058|       14467.7|  N.m/kg.K|     0.0198413|
|      Spec. Heat Ratio|             -|             -|         -|           1.4|
+------------------------------------------------------------------------------+
-- Initial and free-stream conditions:
+------------------------------------------------------------------------------+
|                  Name|    Dim. value|    Ref. value|      Unit|Non-dim. value|
+------------------------------------------------------------------------------+
|       Static Pressure|       99485.6|   5.01407e+06|        Pa|     0.0198413|
|               Density|       1.20274|       1.20274|    kg/m^3|             1|
|           Temperature|        288.15|        288.15|         K|             1|
|          Total Energy|   2.29123e+06|   4.16887e+06|   m^2/s^2|      0.549603|
|            Velocity-X|        1564.1|       2041.78|       m/s|      0.766044|
|            Velocity-Y|             0|       2041.78|       m/s|             0|
|            Velocity-Z|       1312.43|       2041.78|       m/s|      0.642788|
|    Velocity Magnitude|       2041.78|       2041.78|       m/s|             1|
+------------------------------------------------------------------------------+
|             Viscosity|    1.7893e-05|       2455.73|   N.s/m^2|    7.2862e-09|
|          Conductivity|             -|   3.55289e+07|   W/m^2.K|             -|
|     Turb. Kin. Energy|       15633.3|   4.16887e+06|   m^2/s^2|       0.00375|
|     Spec. Dissipation|   1.05085e+08|       2041.78|       1/s|       51467.1|
+------------------------------------------------------------------------------+
|           Mach Number|             -|             -|         -|             6|
|       Reynolds Number|             -|             -|         -|   6.86229e+08|
+------------------------------------------------------------------------------+
Initialize Jacobian structure (Navier-Stokes). MG level: 0.
Initialize Jacobian structure (SA model).

------------------- Numerics Preprocessing ( Zone 0 ) -------------------

----------------- Integration Preprocessing ( Zone 0 ) ------------------

------------------- Iteration Preprocessing ( Zone 0 ) ------------------
Euler/Navier-Stokes/RANS fluid iteration.

------------------------------ Begin Solver -----------------------------

Simulation Run using the Single-zone Driver
WARNING: SU2 was not compiled for an AVX-capable architecture. Performance could be better,
         see https://su2code.github.io/docs_v7/Build-SU2-Linux-MacOS/#compiler-optimizations
+--------------------------------------------------------------------------------------------------------------------+
|  Inner_Iter|   Time(sec)|    rms[Rho]|   rms[RhoU]|   rms[RhoV]|   rms[RhoW]|   rms[RhoE]|     rms[nu]|          CD|
+--------------------------------------------------------------------------------------------------------------------+
|           0|  1.1061e+01|   -4.866074|   -5.014681|   -5.440685|   -5.061023|   -5.099432|   -7.637108|    1.457596|
|           1|  8.7968e+00|   -4.866117|   -5.014735|   -5.440718|   -5.061075|   -5.099501|   -7.637052|    1.457599|
|           2|  7.9625e+00|   -4.866187|   -5.014825|   -5.440770|   -5.061160|   -5.099613|   -7.637074|    1.457602|
|           3|  7.5289e+00|   -4.866262|   -5.014923|   -5.440825|   -5.061251|   -5.099736|   -7.637099|    1.457606|
|           4|  7.2367e+00|   -4.866344|   -5.015031|   -5.440883|   -5.061352|   -5.099869|   -7.637126|    1.457610|
|           5|  7.0357e+00|   -4.866433|   -5.015149|   -5.440944|   -5.061461|   -5.100014|   -7.637156|    1.457615|
|           6|  6.8724e+00|   -4.866530|   -5.015279|   -5.441009|   -5.061580|   -5.100171|   -7.637190|    1.457620|
|           7|  6.7562e+00|   -4.866634|   -5.015420|   -5.441077|   -5.061710|   -5.100343|   -7.637227|    1.457626|
|           8|  6.6657e+00|   -4.866746|   -5.015575|   -5.441147|   -5.061851|   -5.100528|   -7.637268|    1.457632|
|           9|  6.6031e+00|   -4.866867|   -5.015744|   -5.441220|   -5.062004|   -5.100729|   -7.637313|    1.457639|
|          10|  6.5641e+00|   -4.866997|   -5.015929|   -5.441294|   -5.062170|   -5.100947|   -7.637364|    1.457646|
|          11|  6.5808e+00|   -4.867137|   -5.016131|   -5.441369|   -5.062349|   -5.101182|   -7.637420|    1.457654|
|          12|  6.5979e+00|   -4.867285|   -5.016350|   -5.441444|   -5.062543|   -5.101435|   -7.637482|    1.457663|
|          13|  6.6095e+00|   -4.867444|   -5.016589|   -5.441517|   -5.062752|   -5.101707|   -7.637552|    1.457673|
|          14|  6.6185e+00|   -4.867612|   -5.016849|   -5.441586|   -5.062977|   -5.101999|   -7.637630|    1.457684|
|          15|  6.6330e+00|   -4.867789|   -5.017131|   -5.441651|   -5.063218|   -5.102311|   -7.637716|    1.457695|
|          16|  6.6609e+00|   -4.867976|   -5.017436|   -5.441707|   -5.063476|   -5.102644|   -7.637813|    1.457708|
|          17|  6.6710e+00|   -4.868169|   -5.017765|   -5.441753|   -5.063750|   -5.102998|   -7.637922|    1.457723|
|          18|  6.6827e+00|   -4.868370|   -5.018119|   -5.441784|   -5.064041|   -5.103372|   -7.638043|    1.457738|
|          19|  6.7021e+00|   -4.868575|   -5.018499|   -5.441797|   -5.064348|   -5.103765|   -7.638180|    1.457755|
|          20|  6.7125e+00|   -4.868782|   -5.018904|   -5.441786|   -5.064669|   -5.104175|   -7.638335|    1.457774|
|          21|  6.7326e+00|   -4.868987|   -5.019334|   -5.441746|   -5.065001|   -5.104600|   -7.638509|    1.457794|
|          22|  6.7755e+00|   -4.869185|   -5.019787|   -5.441670|   -5.065343|   -5.105036|   -7.638707|    1.457816|
|          23|  6.8116e+00|   -4.869369|   -5.020261|   -5.441549|   -5.065688|   -5.105476|   -7.638931|    1.457840|
|          24|  6.8517e+00|   -4.869532|   -5.020750|   -5.441376|   -5.066030|   -5.105914|   -7.639186|    1.457867|
|          25|  6.8846e+00|   -4.869662|   -5.021249|   -5.441141|   -5.066361|   -5.106339|   -7.639477|    1.457895|
|          26|  6.9241e+00|   -4.869746|   -5.021748|   -5.440833|   -5.066668|   -5.106737|   -7.639975|    1.457924|
|          27|  6.9528e+00|   -4.869798|   -5.022222|   -5.440515|   -5.066949|   -5.107110|   -7.640521|    1.457953|
|          28|  6.9797e+00|   -4.869825|   -5.022667|   -5.440203|   -5.067205|   -5.107462|   -7.641076|    1.457981|
|          29|  7.0044e+00|   -4.869826|   -5.023085|   -5.439898|   -5.067436|   -5.107793|   -7.641641|    1.458009|
|          30|  7.0292e+00|   -4.869802|   -5.023474|   -5.439596|   -5.067642|   -5.108103|   -7.642216|    1.458037|
|          31|  7.0561e+00|   -4.869752|   -5.023836|   -5.439300|   -5.067823|   -5.108392|   -7.642800|    1.458065|
|          32|  7.0792e+00|   -4.869678|   -5.024172|   -5.439008|   -5.067981|   -5.108661|   -7.643395|    1.458092|
|          33|  7.0999e+00|   -4.869581|   -5.024480|   -5.438722|   -5.068116|   -5.108911|   -7.643999|    1.458119|
|          34|  7.1202e+00|   -4.869459|   -5.024763|   -5.438439|   -5.068227|   -5.109142|   -7.644613|    1.458146|
|          35|  7.1395e+00|   -4.869313|   -5.025019|   -5.438159|   -5.068316|   -5.109353|   -7.645237|    1.458172|
|          36|  7.1808e+00|   -4.869145|   -5.025251|   -5.437883|   -5.068382|   -5.109547|   -7.645871|    1.458198|
|          37|  7.2084e+00|   -4.868955|   -5.025458|   -5.437610|   -5.068428|   -5.109723|   -7.646514|    1.458224|
|          38|  7.2234e+00|   -4.868743|   -5.025641|   -5.437340|   -5.068453|   -5.109883|   -7.647168|    1.458250|
|          39|  7.2401e+00|   -4.868511|   -5.025800|   -5.437072|   -5.068458|   -5.110027|   -7.647831|    1.458275|
|          40|  7.2561e+00|   -4.868257|   -5.025937|   -5.436806|   -5.068443|   -5.110155|   -7.648504|    1.458300|
|          41|  7.2666e+00|   -4.867984|   -5.026051|   -5.436543|   -5.068410|   -5.110268|   -7.649187|    1.458325|
|          42|  7.2798e+00|   -4.867693|   -5.026143|   -5.436283|   -5.068359|   -5.110368|   -7.649880|    1.458350|
|          43|  7.2899e+00|   -4.867383|   -5.026214|   -5.436025|   -5.068288|   -5.110453|   -7.650582|    1.458374|
|          44|  7.2964e+00|   -4.867055|   -5.026263|   -5.435768|   -5.068202|   -5.110525|   -7.651293|    1.458398|
|          45|  7.3055e+00|   -4.866710|   -5.026292|   -5.435513|   -5.068098|   -5.110584|   -7.652014|    1.458422|
|          46|  7.3173e+00|   -4.866348|   -5.026301|   -5.435259|   -5.067979|   -5.110631|   -7.652744|    1.458445|
|          47|  7.3278e+00|   -4.865970|   -5.026291|   -5.435006|   -5.067844|   -5.110667|   -7.653484|    1.458468|
|          48|  7.3381e+00|   -4.865576|   -5.026260|   -5.434754|   -5.067694|   -5.110690|   -7.654232|    1.458491|
|          49|  7.3440e+00|   -4.865167|   -5.026212|   -5.434502|   -5.067529|   -5.110703|   -7.654990|    1.458514|
|          50|  7.3551e+00|   -4.864743|   -5.026144|   -5.434251|   -5.067350|   -5.110706|   -7.655756|    1.458537|
|          51|  7.3670e+00|   -4.864304|   -5.026058|   -5.434000|   -5.067157|   -5.110698|   -7.656531|    1.458559|
|          52|  7.3790e+00|   -4.863852|   -5.025956|   -5.433750|   -5.066951|   -5.110680|   -7.657314|    1.458581|
|          53|  7.3888e+00|   -4.863387|   -5.025836|   -5.433499|   -5.066732|   -5.110652|   -7.658106|    1.458603|
|          54|  7.3936e+00|   -4.862907|   -5.025698|   -5.433248|   -5.066499|   -5.110615|   -7.658907|    1.458625|
|          55|  7.3974e+00|   -4.862415|   -5.025544|   -5.432996|   -5.066253|   -5.110568|   -7.659716|    1.458646|
|          56|  7.4057e+00|   -4.861910|   -5.025373|   -5.432745|   -5.065995|   -5.110512|   -7.660533|    1.458667|
|          57|  7.4137e+00|   -4.861392|   -5.025185|   -5.432494|   -5.065724|   -5.110446|   -7.661358|    1.458688|
|          58|  7.4212e+00|   -4.860863|   -5.024981|   -5.432244|   -5.065442|   -5.110372|   -7.662192|    1.458709|
|          59|  7.4273e+00|   -4.860323|   -5.024761|   -5.431994|   -5.065148|   -5.110290|   -7.663033|    1.458729|
|          60|  7.4344e+00|   -4.859772|   -5.024525|   -5.431747|   -5.064843|   -5.110200|   -7.663883|    1.458749|
|          61|  7.4417e+00|   -4.859210|   -5.024275|   -5.431500|   -5.064527|   -5.110102|   -7.664740|    1.458769|
|          62|  7.4466e+00|   -4.858638|   -5.024008|   -5.431254|   -5.064200|   -5.109996|   -7.665605|    1.458789|
|          63|  7.4506e+00|   -4.858054|   -5.023726|   -5.431008|   -5.063861|   -5.109881|   -7.666493|    1.458809|
|          64|  7.4559e+00|   -4.857460|   -5.023429|   -5.430762|   -5.063511|   -5.109757|   -7.667395|    1.458828|
|          65|  7.4605e+00|   -4.856856|   -5.023116|   -5.430517|   -5.063150|   -5.109626|   -7.668303|    1.458847|
|          66|  7.4666e+00|   -4.856242|   -5.022788|   -5.430271|   -5.062778|   -5.109485|   -7.669217|    1.458866|
|          67|  7.4793e+00|   -4.855617|   -5.022444|   -5.430025|   -5.062394|   -5.109336|   -7.670137|    1.458885|
|          68|  7.4921e+00|   -4.854983|   -5.022086|   -5.429778|   -5.062000|   -5.109179|   -7.671064|    1.458903|
|          69|  7.5007e+00|   -4.854340|   -5.021712|   -5.429531|   -5.061597|   -5.109013|   -7.671998|    1.458921|
|          70|  7.5058e+00|   -4.853687|   -5.021325|   -5.429284|   -5.061182|   -5.108840|   -7.672938|    1.458939|
|          71|  7.5116e+00|   -4.853024|   -5.020922|   -5.429036|   -5.060757|   -5.108657|   -7.673885|    1.458957|
|          72|  7.5148e+00|   -4.852352|   -5.020504|   -5.428787|   -5.060322|   -5.108466|   -7.674838|    1.458975|
|          73|  7.5178e+00|   -4.851670|   -5.020071|   -5.428536|   -5.059874|   -5.108264|   -7.675798|    1.458992|
|          74|  7.5229e+00|   -4.850977|   -5.019623|   -5.428284|   -5.059416|   -5.108054|   -7.676764|    1.459009|
|          75|  7.5262e+00|   -4.850275|   -5.019160|   -5.428031|   -5.058947|   -5.107834|   -7.677736|    1.459026|
|          76|  7.5294e+00|   -4.849562|   -5.018683|   -5.427777|   -5.058466|   -5.107604|   -7.678716|    1.459042|
|          77|  7.5317e+00|   -4.848839|   -5.018191|   -5.427522|   -5.057974|   -5.107364|   -7.679702|    1.459059|
|          78|  7.5336e+00|   -4.848108|   -5.017685|   -5.427268|   -5.057472|   -5.107116|   -7.680694|    1.459075|
|          79|  7.5377e+00|   -4.847368|   -5.017165|   -5.427014|   -5.056960|   -5.106860|   -7.681693|    1.459091|
|          80|  7.5411e+00|   -4.846619|   -5.016631|   -5.426759|   -5.056437|   -5.106593|   -7.682699|    1.459107|
|          81|  7.5432e+00|   -4.845860|   -5.016083|   -5.426503|   -5.055902|   -5.106317|   -7.683711|    1.459123|
|          82|  7.5527e+00|   -4.845093|   -5.015520|   -5.426247|   -5.055358|   -5.106032|   -7.684730|    1.459138|
|          83|  7.5640e+00|   -4.844315|   -5.014943|   -5.425989|   -5.054802|   -5.105736|   -7.685756|    1.459153|
|          84|  7.5710e+00|   -4.843528|   -5.014353|   -5.425730|   -5.054234|   -5.105430|   -7.686788|    1.459168|
|          85|  7.5744e+00|   -4.842732|   -5.013748|   -5.425470|   -5.053656|   -5.105114|   -7.687827|    1.459183|
|          86|  7.5793e+00|   -4.841927|   -5.013130|   -5.425210|   -5.053067|   -5.104789|   -7.688872|    1.459197|
|          87|  7.5818e+00|   -4.841113|   -5.012498|   -5.424948|   -5.052467|   -5.104453|   -7.689924|    1.459211|
|          88|  7.5848e+00|   -4.840289|   -5.011852|   -5.424684|   -5.051856|   -5.104107|   -7.690983|    1.459226|
|          89|  7.5901e+00|   -4.839457|   -5.011193|   -5.424421|   -5.051235|   -5.103751|   -7.692048|    1.459239|
|          90|  7.5991e+00|   -4.838617|   -5.010520|   -5.424158|   -5.050603|   -5.103386|   -7.693120|    1.459253|
|          91|  7.6068e+00|   -4.837769|   -5.009834|   -5.423894|   -5.049962|   -5.103011|   -7.694197|    1.459266|
|          92|  7.6106e+00|   -4.836914|   -5.009136|   -5.423630|   -5.049311|   -5.102627|   -7.695281|    1.459280|
|          93|  7.6135e+00|   -4.836051|   -5.008425|   -5.423366|   -5.048649|   -5.102233|   -7.696370|    1.459293|
|          94|  7.6162e+00|   -4.835180|   -5.007701|   -5.423102|   -5.047978|   -5.101829|   -7.697467|    1.459306|
|          95|  7.6179e+00|   -4.834302|   -5.006965|   -5.422836|   -5.047298|   -5.101416|   -7.698569|    1.459318|
|          96|  7.6207e+00|   -4.833417|   -5.006217|   -5.422571|   -5.046607|   -5.100993|   -7.699678|    1.459331|
|          97|  7.6277e+00|   -4.832525|   -5.005458|   -5.422306|   -5.045908|   -5.100561|   -7.700792|    1.459343|
|          98|  7.6317e+00|   -4.831627|   -5.004686|   -5.422043|   -5.045200|   -5.100121|   -7.701913|    1.459355|
|          99|  7.6319e+00|   -4.830723|   -5.003904|   -5.421781|   -5.044483|   -5.099671|   -7.703040|    1.459367|
|         100|  7.6338e+00|   -4.829812|   -5.003110|   -5.421518|   -5.043757|   -5.099212|   -7.704173|    1.459378|
|         101|  7.6364e+00|   -4.828896|   -5.002305|   -5.421257|   -5.043024|   -5.098745|   -7.705311|    1.459390|
|         102|  7.6394e+00|   -4.827974|   -5.001490|   -5.420997|   -5.042281|   -5.098269|   -7.706456|    1.459401|
|         103|  7.6409e+00|   -4.827045|   -5.000663|   -5.420737|   -5.041530|   -5.097783|   -7.707606|    1.459412|
|         104|  7.6416e+00|   -4.826111|   -4.999827|   -5.420477|   -5.040771|   -5.097289|   -7.708762|    1.459423|
|         105|  7.6428e+00|   -4.825172|   -4.998980|   -5.420219|   -5.040004|   -5.096786|   -7.709923|    1.459434|
|         106|  7.6451e+00|   -4.824228|   -4.998124|   -5.419961|   -5.039230|   -5.096275|   -7.711090|    1.459445|
|         107|  7.6482e+00|   -4.823280|   -4.997258|   -5.419702|   -5.038449|   -5.095755|   -7.712262|    1.459455|
|         108|  7.6502e+00|   -4.822327|   -4.996383|   -5.419445|   -5.037660|   -5.095228|   -7.713440|    1.459465|
|         109|  7.6510e+00|   -4.821369|   -4.995499|   -5.419186|   -5.036865|   -5.094692|   -7.714623|    1.459475|
|         110|  7.6518e+00|   -4.820407|   -4.994606|   -5.418927|   -5.036063|   -5.094148|   -7.715811|    1.459485|
|         111|  7.6528e+00|   -4.819441|   -4.993704|   -5.418669|   -5.035253|   -5.093596|   -7.717004|    1.459495|
|         112|  7.6630e+00|   -4.818470|   -4.992794|   -5.418410|   -5.034437|   -5.093035|   -7.718202|    1.459504|
|         113|  7.6665e+00|   -4.817495|   -4.991875|   -5.418150|   -5.033614|   -5.092466|   -7.719405|    1.459514|
|         114|  7.6681e+00|   -4.816518|   -4.990948|   -5.417889|   -5.032786|   -5.091890|   -7.720613|    1.459523|
|         115|  7.6695e+00|   -4.815537|   -4.990014|   -5.417630|   -5.031952|   -5.091308|   -7.721826|    1.459532|
|         116|  7.6708e+00|   -4.814554|   -4.989074|   -5.417371|   -5.031113|   -5.090718|   -7.723043|    1.459541|
|         117|  7.6718e+00|   -4.813568|   -4.988125|   -5.417110|   -5.030268|   -5.090121|   -7.724264|    1.459549|
|         118|  7.6726e+00|   -4.812578|   -4.987170|   -5.416849|   -5.029417|   -5.089517|   -7.725490|    1.459558|
|         119|  7.6736e+00|   -4.811586|   -4.986207|   -5.416589|   -5.028562|   -5.088906|   -7.726721|    1.459566|
|         120|  7.6749e+00|   -4.810592|   -4.985238|   -5.416328|   -5.027702|   -5.088287|   -7.727956|    1.459575|
|         121|  7.6759e+00|   -4.809594|   -4.984261|   -5.416067|   -5.026837|   -5.087661|   -7.729195|    1.459583|
|         122|  7.6766e+00|   -4.808593|   -4.983277|   -5.415804|   -5.025966|   -5.087028|   -7.730439|    1.459591|
|         123|  7.6782e+00|   -4.807590|   -4.982288|   -5.415542|   -5.025091|   -5.086388|   -7.731687|    1.459598|
|         124|  7.6790e+00|   -4.806585|   -4.981293|   -5.415282|   -5.024212|   -5.085743|   -7.732939|    1.459606|
|         125|  7.6795e+00|   -4.805580|   -4.980294|   -5.415021|   -5.023331|   -5.085092|   -7.734195|    1.459613|
|         126|  7.6803e+00|   -4.804575|   -4.979291|   -5.414761|   -5.022448|   -5.084437|   -7.735455|    1.459621|
|         127|  7.6889e+00|   -4.803568|   -4.978282|   -5.414503|   -5.021562|   -5.083776|   -7.736720|    1.459628|
|         128|  7.6934e+00|   -4.802560|   -4.977268|   -5.414245|   -5.020672|   -5.083110|   -7.737988|    1.459635|
|         129|  7.6941e+00|   -4.801552|   -4.976250|   -5.413988|   -5.019778|   -5.082437|   -7.739260|    1.459642|
|         130|  7.6960e+00|   -4.800541|   -4.975227|   -5.413729|   -5.018881|   -5.081759|   -7.740536|    1.459649|
|         131|  7.6985e+00|   -4.799530|   -4.974198|   -5.413471|   -5.017980|   -5.081074|   -7.741816|    1.459655|
|         132|  7.6987e+00|   -4.798516|   -4.973165|   -5.413213|   -5.017073|   -5.080383|   -7.743099|    1.459662|
|         133|  7.6998e+00|   -4.797501|   -4.972127|   -5.412956|   -5.016165|   -5.079686|   -7.744386|    1.459668|
|         134|  7.7007e+00|   -4.796488|   -4.971086|   -5.412701|   -5.015255|   -5.078986|   -7.745677|    1.459674|
|         135|  7.7016e+00|   -4.795474|   -4.970041|   -5.412447|   -5.014342|   -5.078280|   -7.746972|    1.459680|
|         136|  7.7028e+00|   -4.794458|   -4.968990|   -5.412194|   -5.013425|   -5.077569|   -7.748271|    1.459686|
|         137|  7.7031e+00|   -4.793443|   -4.967936|   -5.411941|   -5.012507|   -5.076852|   -7.749573|    1.459691|
|         138|  7.7043e+00|   -4.792427|   -4.966879|   -5.411690|   -5.011585|   -5.076131|   -7.750878|    1.459697|
|         139|  7.7059e+00|   -4.791411|   -4.965817|   -5.411439|   -5.010661|   -5.075404|   -7.752188|    1.459702|
|         140|  7.7065e+00|   -4.790394|   -4.964750|   -5.411189|   -5.009736|   -5.074671|   -7.753500|    1.459707|
|         141|  7.7079e+00|   -4.789378|   -4.963680|   -5.410941|   -5.008809|   -5.073935|   -7.754817|    1.459712|
|         142|  7.7113e+00|   -4.788362|   -4.962608|   -5.410694|   -5.007880|   -5.073195|   -7.756136|    1.459717|
|         143|  7.7126e+00|   -4.787348|   -4.961533|   -5.410449|   -5.006951|   -5.072451|   -7.757460|    1.459721|
|         144|  7.7135e+00|   -4.786336|   -4.960457|   -5.410206|   -5.006022|   -5.071705|   -7.758786|    1.459726|
|         145|  7.7142e+00|   -4.785325|   -4.959379|   -5.409965|   -5.005092|   -5.070956|   -7.760116|    1.459730|
|         146|  7.7162e+00|   -4.784316|   -4.958300|   -5.409724|   -5.004162|   -5.070203|   -7.761449|    1.459734|
|         147|  7.7163e+00|   -4.783308|   -4.957218|   -5.409486|   -5.003232|   -5.069448|   -7.762786|    1.459738|
|         148|  7.7163e+00|   -4.782302|   -4.956136|   -5.409250|   -5.002302|   -5.068690|   -7.764126|    1.459741|
|         149|  7.7159e+00|   -4.781298|   -4.955052|   -5.409015|   -5.001371|   -5.067929|   -7.765469|    1.459745|
|         150|  7.7168e+00|   -4.780296|   -4.953967|   -5.408781|   -5.000441|   -5.067165|   -7.766816|    1.459748|
+-----------------------------------------------------------------------+
|        File Writing Summary       |              Filename             |
+-----------------------------------------------------------------------+
|SU2 binary restart                 |restart_flow.dat                   |
|Paraview                           |flow.vtu                           |
|Paraview surface                   |surface_flow.vtu                   |
+-----------------------------------------------------------------------+
+--------------------------------------------------------------------------------------------------------------------+
|  Inner_Iter|   Time(sec)|    rms[Rho]|   rms[RhoU]|   rms[RhoV]|   rms[RhoW]|   rms[RhoE]|     rms[nu]|          CD|
+--------------------------------------------------------------------------------------------------------------------+
|         151|  7.8817e+00|   -4.779296|   -4.952881|   -5.408549|   -4.999511|   -5.066398|   -7.768165|    1.459751|
|         152|  7.8831e+00|   -4.778298|   -4.951795|   -5.408319|   -4.998581|   -5.065630|   -7.769518|    1.459754|
|         153|  7.8845e+00|   -4.777303|   -4.950708|   -5.408091|   -4.997651|   -5.064859|   -7.770873|    1.459756|
|         154|  7.8867e+00|   -4.776309|   -4.949621|   -5.407863|   -4.996720|   -5.064085|   -7.772232|    1.459758|
|         155|  7.8869e+00|   -4.775318|   -4.948534|   -5.407637|   -4.995791|   -5.063309|   -7.773594|    1.459761|
|         156|  7.8864e+00|   -4.774329|   -4.947448|   -5.407412|   -4.994862|   -5.062532|   -7.774958|    1.459762|
|         157|  7.8847e+00|   -4.773344|   -4.946362|   -5.407189|   -4.993934|   -5.061753|   -7.776326|    1.459764|
|         158|  7.8839e+00|   -4.772361|   -4.945276|   -5.406968|   -4.993008|   -5.060973|   -7.777696|    1.459765|
|         159|  7.8815e+00|   -4.771383|   -4.944192|   -5.406750|   -4.992083|   -5.060192|   -7.779070|    1.459767|
|         160|  7.8799e+00|   -4.770406|   -4.943108|   -5.406533|   -4.991160|   -5.059410|   -7.780448|    1.459768|
|         161|  7.8781e+00|   -4.769434|   -4.942027|   -5.406317|   -4.990238|   -5.058627|   -7.781829|    1.459768|
|         162|  7.8762e+00|   -4.768467|   -4.940949|   -5.406103|   -4.989321|   -5.057848|   -7.783212|    1.459769|
|         163|  7.8739e+00|   -4.767503|   -4.939873|   -5.405890|   -4.988406|   -5.057067|   -7.784597|    1.459769|
|         164|  7.8721e+00|   -4.766542|   -4.938797|   -5.405677|   -4.987492|   -5.056285|   -7.785986|    1.459769|
|         165|  7.8704e+00|   -4.765584|   -4.937723|   -5.405464|   -4.986578|   -5.055501|   -7.787376|    1.459768|
|         166|  7.8680e+00|   -4.764629|   -4.936650|   -5.405251|   -4.985666|   -5.054715|   -7.788770|    1.459768|
|         167|  7.8671e+00|   -4.763677|   -4.935578|   -5.405040|   -4.984756|   -5.053930|   -7.790165|    1.459767|
|         168|  7.8657e+00|   -4.762728|   -4.934508|   -5.404829|   -4.983848|   -5.053143|   -7.791563|    1.459765|
|         169|  7.8643e+00|   -4.761783|   -4.933439|   -5.404620|   -4.982941|   -5.052355|   -7.792963|    1.459764|
|         170|  7.8668e+00|   -4.760840|   -4.932373|   -5.404411|   -4.982036|   -5.051567|   -7.794366|    1.459762|
|         171|  7.8710e+00|   -4.759902|   -4.931308|   -5.404205|   -4.981133|   -5.050778|   -7.795770|    1.459760|
|         172|  7.8708e+00|   -4.758968|   -4.930246|   -5.404001|   -4.980233|   -5.049991|   -7.797177|    1.459758|
|         173|  7.8705e+00|   -4.758037|   -4.929185|   -5.403799|   -4.979334|   -5.049202|   -7.798585|    1.459755|
|         174|  7.8696e+00|   -4.757111|   -4.928128|   -5.403599|   -4.978438|   -5.048415|   -7.799996|    1.459753|
|         175|  7.8680e+00|   -4.756189|   -4.927073|   -5.403401|   -4.977545|   -5.047628|   -7.801409|    1.459749|
|         176|  7.8678e+00|   -4.755270|   -4.926021|   -5.403202|   -4.976653|   -5.046840|   -7.802823|    1.459746|
|         177|  7.8664e+00|   -4.754356|   -4.924972|   -5.403005|   -4.975764|   -5.046053|   -7.804239|    1.459742|
|         178|  7.8648e+00|   -4.753446|   -4.923925|   -5.402811|   -4.974878|   -5.045266|   -7.805657|    1.459738|
|         179|  7.8638e+00|   -4.752540|   -4.922882|   -5.402619|   -4.973994|   -5.044480|   -7.807077|    1.459734|
|         180|  7.8633e+00|   -4.751639|   -4.921842|   -5.402430|   -4.973114|   -5.043696|   -7.808499|    1.459729|
|         181|  7.8621e+00|   -4.750746|   -4.920808|   -5.402245|   -4.972240|   -5.042916|   -7.809921|    1.459724|
|         182|  7.8602e+00|   -4.749856|   -4.919776|   -5.402062|   -4.971369|   -5.042136|   -7.811343|    1.459719|
|         183|  7.8595e+00|   -4.748971|   -4.918747|   -5.401880|   -4.970500|   -5.041357|   -7.812766|    1.459714|
|         184|  7.8579e+00|   -4.748090|   -4.917722|   -5.401699|   -4.969634|   -5.040579|   -7.814189|    1.459708|
|         185|  7.8591e+00|   -4.747214|   -4.916700|   -5.401520|   -4.968771|   -5.039801|   -7.815612|    1.459702|
|         186|  7.8620e+00|   -4.746343|   -4.915682|   -5.401342|   -4.967912|   -5.039026|   -7.817036|    1.459696|
|         187|  7.8641e+00|   -4.745477|   -4.914668|   -5.401167|   -4.967056|   -5.038251|   -7.818460|    1.459689|
|         188|  7.8641e+00|   -4.744615|   -4.913657|   -5.400994|   -4.966203|   -5.037478|   -7.819884|    1.459682|
|         189|  7.8634e+00|   -4.743762|   -4.912654|   -5.400827|   -4.965359|   -5.036712|   -7.821307|    1.459675|
|         190|  7.8623e+00|   -4.742915|   -4.911656|   -5.400660|   -4.964519|   -5.035947|   -7.822730|    1.459668|
|         191|  7.8607e+00|   -4.742072|   -4.910662|   -5.400495|   -4.963682|   -5.035184|   -7.824153|    1.459660|
|         192|  7.8597e+00|   -4.741234|   -4.909672|   -5.400330|   -4.962847|   -5.034423|   -7.825575|    1.459652|
|         193|  7.8590e+00|   -4.740401|   -4.908686|   -5.400166|   -4.962017|   -5.033662|   -7.826996|    1.459644|
|         194|  7.8576e+00|   -4.739572|   -4.907705|   -5.400003|   -4.961190|   -5.032904|   -7.828416|    1.459635|
|         195|  7.8556e+00|   -4.738748|   -4.906727|   -5.399838|   -4.960366|   -5.032146|   -7.829836|    1.459626|
|         196|  7.8539e+00|   -4.737929|   -4.905753|   -5.399675|   -4.959546|   -5.031390|   -7.831254|    1.459617|
|         197|  7.8525e+00|   -4.737115|   -4.904784|   -5.399514|   -4.958731|   -5.030636|   -7.832671|    1.459608|
|         198|  7.8506e+00|   -4.736307|   -4.903819|   -5.399354|   -4.957919|   -5.029884|   -7.834087|    1.459598|
|         199|  7.8492e+00|   -4.735503|   -4.902859|   -5.399195|   -4.957110|   -5.029134|   -7.835501|    1.459588|
|         200|  7.8478e+00|   -4.734705|   -4.901904|   -5.399038|   -4.956306|   -5.028386|   -7.836913|    1.459578|
|         201|  7.8486e+00|   -4.733911|   -4.900953|   -5.398881|   -4.955506|   -5.027640|   -7.838324|    1.459568|
|         202|  7.8478e+00|   -4.733122|   -4.900007|   -5.398724|   -4.954709|   -5.026895|   -7.839734|    1.459557|
|         203|  7.8466e+00|   -4.732337|   -4.899064|   -5.398567|   -4.953915|   -5.026152|   -7.841141|    1.459546|
|         204|  7.8450e+00|   -4.731559|   -4.898128|   -5.398411|   -4.953128|   -5.025413|   -7.842546|    1.459535|
|         205|  7.8440e+00|   -4.730786|   -4.897196|   -5.398257|   -4.952345|   -5.024677|   -7.843949|    1.459524|
|         206|  7.8425e+00|   -4.730020|   -4.896270|   -5.398104|   -4.951568|   -5.023944|   -7.845350|    1.459512|
|         207|  7.8408e+00|   -4.729259|   -4.895349|   -5.397953|   -4.950794|   -5.023214|   -7.846748|    1.459500|
|         208|  7.8401e+00|   -4.728503|   -4.894432|   -5.397802|   -4.950025|   -5.022486|   -7.848144|    1.459488|
|         209|  7.8386e+00|   -4.727753|   -4.893522|   -5.397653|   -4.949261|   -5.021762|   -7.849537|    1.459476|
|         210|  7.8370e+00|   -4.727008|   -4.892617|   -5.397506|   -4.948500|   -5.021040|   -7.850927|    1.459463|
|         211|  7.8355e+00|   -4.726268|   -4.891716|   -5.397357|   -4.947743|   -5.020319|   -7.852315|    1.459450|
|         212|  7.8333e+00|   -4.725533|   -4.890820|   -5.397211|   -4.946991|   -5.019602|   -7.853700|    1.459437|
|         213|  7.8311e+00|   -4.724804|   -4.889930|   -5.397064|   -4.946243|   -5.018888|   -7.855082|    1.459424|
|         214|  7.8296e+00|   -4.724080|   -4.889043|   -5.396919|   -4.945500|   -5.018176|   -7.856461|    1.459411|
|         215|  7.8284e+00|   -4.723361|   -4.888163|   -5.396775|   -4.944761|   -5.017468|   -7.857836|    1.459397|
|         216|  7.8283e+00|   -4.722649|   -4.887288|   -5.396632|   -4.944028|   -5.016763|   -7.859207|    1.459383|
|         217|  7.8282e+00|   -4.721943|   -4.886419|   -5.396492|   -4.943301|   -5.016063|   -7.860573|    1.459369|
|         218|  7.8268e+00|   -4.721243|   -4.885555|   -5.396353|   -4.942578|   -5.015365|   -7.861936|    1.459355|
|         219|  7.8260e+00|   -4.720547|   -4.884696|   -5.396216|   -4.941860|   -5.014670|   -7.863294|    1.459340|
|         220|  7.8250e+00|   -4.719858|   -4.883843|   -5.396080|   -4.941146|   -5.013979|   -7.864647|    1.459326|
|         221|  7.8245e+00|   -4.719174|   -4.882995|   -5.395947|   -4.940437|   -5.013292|   -7.865996|    1.459311|
|         222|  7.8230e+00|   -4.718498|   -4.882154|   -5.395817|   -4.939735|   -5.012610|   -7.867340|    1.459296|
|         223|  7.8213e+00|   -4.717828|   -4.881320|   -5.395688|   -4.939037|   -5.011932|   -7.868678|    1.459280|
|         224|  7.8202e+00|   -4.717163|   -4.880491|   -5.395560|   -4.938344|   -5.011256|   -7.870011|    1.459265|
|         225|  7.8191e+00|   -4.716503|   -4.879667|   -5.395432|   -4.937654|   -5.010583|   -7.871338|    1.459249|
|         226|  7.8189e+00|   -4.715849|   -4.878848|   -5.395304|   -4.936971|   -5.009914|   -7.872660|    1.459233|
|         227|  7.8183e+00|   -4.715200|   -4.878036|   -5.395178|   -4.936293|   -5.009250|   -7.873975|    1.459217|
|         228|  7.8171e+00|   -4.714558|   -4.877229|   -5.395054|   -4.935619|   -5.008588|   -7.875284|    1.459201|
|         229|  7.8160e+00|   -4.713921|   -4.876427|   -5.394931|   -4.934951|   -5.007930|   -7.876586|    1.459184|
|         230|  7.8149e+00|   -4.713290|   -4.875632|   -5.394810|   -4.934288|   -5.007277|   -7.877882|    1.459168|
|         231|  7.8141e+00|   -4.712665|   -4.874842|   -5.394691|   -4.933631|   -5.006628|   -7.879168|    1.459151|
|         232|  7.8154e+00|   -4.712042|   -4.874053|   -5.394571|   -4.932974|   -5.005978|   -7.880444|    1.459134|
|         233|  7.8195e+00|   -4.711424|   -4.873270|   -5.394453|   -4.932322|   -5.005331|   -7.881712|    1.459117|
|         234|  7.8218e+00|   -4.710813|   -4.872493|   -5.394336|   -4.931677|   -5.004690|   -7.882972|    1.459099|
|         235|  7.8232e+00|   -4.710210|   -4.871725|   -5.394223|   -4.931040|   -5.004056|   -7.884225|    1.459081|
|         236|  7.8229e+00|   -4.709613|   -4.870963|   -5.394110|   -4.930408|   -5.003426|   -7.885468|    1.459064|
|         237|  7.8227e+00|   -4.709022|   -4.870207|   -5.393998|   -4.929781|   -5.002801|   -7.886704|    1.459046|
|         238|  7.8215e+00|   -4.708437|   -4.869457|   -5.393889|   -4.929160|   -5.002180|   -7.887930|    1.459028|
|         239|  7.8209e+00|   -4.707857|   -4.868714|   -5.393781|   -4.928544|   -5.001562|   -7.889148|    1.459009|
|         240|  7.8198e+00|   -4.707284|   -4.867976|   -5.393675|   -4.927933|   -5.000949|   -7.890357|    1.458991|
|         241|  7.8192e+00|   -4.706718|   -4.867245|   -5.393573|   -4.927329|   -5.000342|   -7.891557|    1.458972|
|         242|  7.8186e+00|   -4.706157|   -4.866519|   -5.393472|   -4.926730|   -4.999738|   -7.892747|    1.458953|
|         243|  7.8178e+00|   -4.705601|   -4.865799|   -5.393373|   -4.926135|   -4.999139|   -7.893927|    1.458934|
|         244|  7.8171e+00|   -4.705050|   -4.865084|   -5.393275|   -4.925545|   -4.998542|   -7.895097|    1.458915|
|         245|  7.8165e+00|   -4.704505|   -4.864374|   -5.393177|   -4.924960|   -4.997949|   -7.896257|    1.458895|
|         246|  7.8154e+00|   -4.703963|   -4.863669|   -5.393079|   -4.924378|   -4.997357|   -7.897407|    1.458875|
|         247|  7.8142e+00|   -4.703426|   -4.862968|   -5.392981|   -4.923800|   -4.996769|   -7.898546|    1.458855|
|         248|  7.8149e+00|   -4.702895|   -4.862274|   -5.392886|   -4.923228|   -4.996186|   -7.899674|    1.458835|
|         249|  7.8152e+00|   -4.702370|   -4.861586|   -5.392793|   -4.922661|   -4.995607|   -7.900790|    1.458815|
|         250|  7.8154e+00|   -4.701849|   -4.860903|   -5.392701|   -4.922099|   -4.995031|   -7.901896|    1.458795|
|         251|  7.8151e+00|   -4.701334|   -4.860225|   -5.392611|   -4.921541|   -4.994459|   -7.902989|    1.458774|
|         252|  7.8146e+00|   -4.700824|   -4.859552|   -5.392523|   -4.920988|   -4.993890|   -7.904071|    1.458753|
|         253|  7.8142e+00|   -4.700318|   -4.858884|   -5.392437|   -4.920440|   -4.993324|   -7.905140|    1.458732|
|         254|  7.8138e+00|   -4.699817|   -4.858221|   -5.392352|   -4.919895|   -4.992762|   -7.906196|    1.458711|
|         255|  7.8130e+00|   -4.699319|   -4.857561|   -5.392268|   -4.919353|   -4.992202|   -7.907240|    1.458689|
|         256|  7.8124e+00|   -4.698827|   -4.856907|   -5.392186|   -4.918817|   -4.991645|   -7.908271|    1.458668|
|         257|  7.8116e+00|   -4.698338|   -4.856257|   -5.392104|   -4.918283|   -4.991092|   -7.909288|    1.458646|
|         258|  7.8105e+00|   -4.697857|   -4.855616|   -5.392025|   -4.917757|   -4.990545|   -7.910292|    1.458624|
|         259|  7.8095e+00|   -4.697381|   -4.854979|   -5.391949|   -4.917235|   -4.990001|   -7.911282|    1.458602|
|         260|  7.8082e+00|   -4.696909|   -4.854347|   -5.391874|   -4.916718|   -4.989461|   -7.912258|    1.458579|
|         261|  7.8067e+00|   -4.696443|   -4.853720|   -5.391801|   -4.916205|   -4.988926|   -7.913220|    1.458557|
|         262|  7.8063e+00|   -4.695982|   -4.853099|   -5.391731|   -4.915697|   -4.988393|   -7.914166|    1.458534|
|         263|  7.8058e+00|   -4.695526|   -4.852483|   -5.391664|   -4.915195|   -4.987866|   -7.915098|    1.458511|
|         264|  7.8062e+00|   -4.695075|   -4.851872|   -5.391600|   -4.914697|   -4.987342|   -7.916014|    1.458488|
|         265|  7.8060e+00|   -4.694631|   -4.851267|   -5.391540|   -4.914205|   -4.986824|   -7.916915|    1.458464|
|         266|  7.8053e+00|   -4.694191|   -4.850668|   -5.391482|   -4.913718|   -4.986310|   -7.917800|    1.458440|
|         267|  7.8046e+00|   -4.693757|   -4.850073|   -5.391427|   -4.913236|   -4.985799|   -7.918669|    1.458417|
|         268|  7.8039e+00|   -4.693328|   -4.849485|   -5.391374|   -4.912758|   -4.985293|   -7.919522|    1.458393|
|         269|  7.8029e+00|   -4.692904|   -4.848902|   -5.391324|   -4.912285|   -4.984792|   -7.920358|    1.458368|
|         270|  7.8015e+00|   -4.692485|   -4.848324|   -5.391276|   -4.911817|   -4.984294|   -7.921177|    1.458344|
|         271|  7.8002e+00|   -4.692071|   -4.847751|   -5.391231|   -4.911354|   -4.983800|   -7.921979|    1.458319|
|         272|  7.7998e+00|   -4.691661|   -4.847183|   -5.391188|   -4.910894|   -4.983310|   -7.922763|    1.458294|
|         273|  7.7996e+00|   -4.691257|   -4.846620|   -5.391148|   -4.910440|   -4.982824|   -7.923530|    1.458269|
|         274|  7.7986e+00|   -4.690858|   -4.846063|   -5.391112|   -4.909991|   -4.982342|   -7.924279|    1.458244|
|         275|  7.7974e+00|   -4.690466|   -4.845512|   -5.391079|   -4.909549|   -4.981867|   -7.925002|    1.458218|
|         276|  7.7972e+00|   -4.690079|   -4.844966|   -5.391049|   -4.909112|   -4.981396|   -7.925706|    1.458193|
|         277|  7.7968e+00|   -4.689697|   -4.844425|   -5.391021|   -4.908679|   -4.980928|   -7.926392|    1.458167|
|         278|  7.7959e+00|   -4.689319|   -4.843888|   -5.390995|   -4.908250|   -4.980464|   -7.927059|    1.458141|
|         279|  7.7958e+00|   -4.688947|   -4.843359|   -5.390973|   -4.907827|   -4.980006|   -7.927708|    1.458114|
|         280|  7.7952e+00|   -4.688588|   -4.842843|   -5.390961|   -4.907415|   -4.979561|   -7.928337|    1.458088|
|         281|  7.7949e+00|   -4.688232|   -4.842331|   -5.390949|   -4.907007|   -4.979118|   -7.928947|    1.458061|
|         282|  7.7944e+00|   -4.687880|   -4.841823|   -5.390939|   -4.906603|   -4.978678|   -7.929537|    1.458034|
|         283|  7.7934e+00|   -4.687533|   -4.841319|   -5.390930|   -4.906203|   -4.978241|   -7.930107|    1.458007|
|         284|  7.7928e+00|   -4.687189|   -4.840819|   -5.390922|   -4.905806|   -4.977808|   -7.930658|    1.457980|
|         285|  7.7919e+00|   -4.686850|   -4.840323|   -5.390916|   -4.905415|   -4.977377|   -7.931188|    1.457952|
|         286|  7.7913e+00|   -4.686517|   -4.839833|   -5.390912|   -4.905028|   -4.976952|   -7.931698|    1.457924|
|         287|  7.7907e+00|   -4.686189|   -4.839350|   -5.390910|   -4.904647|   -4.976532|   -7.932187|    1.457896|
|         288|  7.7896e+00|   -4.685866|   -4.838872|   -5.390910|   -4.904270|   -4.976115|   -7.932655|    1.457868|
|         289|  7.7885e+00|   -4.685549|   -4.838400|   -5.390912|   -4.903899|   -4.975704|   -7.933103|    1.457840|
|         290|  7.7879e+00|   -4.685237|   -4.837933|   -5.390917|   -4.903532|   -4.975297|   -7.933529|    1.457811|
|         291|  7.7870e+00|   -4.684929|   -4.837470|   -5.390923|   -4.903170|   -4.974893|   -7.933934|    1.457782|
|         292|  7.7859e+00|   -4.684626|   -4.837012|   -5.390931|   -4.902813|   -4.974493|   -7.934317|    1.457753|
|         293|  7.7844e+00|   -4.684327|   -4.836558|   -5.390940|   -4.902459|   -4.974097|   -7.934679|    1.457724|
|         294|  7.7832e+00|   -4.684032|   -4.836109|   -5.390950|   -4.902110|   -4.973703|   -7.935019|    1.457694|
|         295|  7.7836e+00|   -4.683743|   -4.835664|   -5.390962|   -4.901765|   -4.973314|   -7.935337|    1.457665|
|         296|  7.7835e+00|   -4.683458|   -4.835225|   -5.390978|   -4.901425|   -4.972928|   -7.935633|    1.457635|
|         297|  7.7826e+00|   -4.683178|   -4.834790|   -5.390994|   -4.901090|   -4.972546|   -7.935907|    1.457605|
|         298|  7.7819e+00|   -4.682902|   -4.834360|   -5.391013|   -4.900759|   -4.972168|   -7.936158|    1.457574|
|         299|  7.7815e+00|   -4.682632|   -4.833936|   -5.391034|   -4.900432|   -4.971795|   -7.936387|    1.457544|
|         300|  7.7807e+00|   -4.682366|   -4.833517|   -5.391057|   -4.900111|   -4.971426|   -7.936594|    1.457513|
+-----------------------------------------------------------------------+
|        File Writing Summary       |              Filename             |
+-----------------------------------------------------------------------+
|SU2 binary restart                 |restart_flow.dat                   |
|Paraview                           |flow.vtu                           |
|Paraview surface                   |surface_flow.vtu                   |
+-----------------------------------------------------------------------+
+--------------------------------------------------------------------------------------------------------------------+
|  Inner_Iter|   Time(sec)|    rms[Rho]|   rms[RhoU]|   rms[RhoV]|   rms[RhoW]|   rms[RhoE]|     rms[nu]|          CD|
+--------------------------------------------------------------------------------------------------------------------+
|         301|  7.8615e+00|   -4.682106|   -4.833104|   -5.391081|   -4.899795|   -4.971061|   -7.936777|    1.457482|
|         302|  7.8620e+00|   -4.681852|   -4.832696|   -5.391107|   -4.899485|   -4.970701|   -7.936938|    1.457451|
|         303|  7.8621e+00|   -4.681604|   -4.832294|   -5.391137|   -4.899180|   -4.970347|   -7.937077|    1.457420|
|         304|  7.8616e+00|   -4.681360|   -4.831898|   -5.391170|   -4.898881|   -4.969997|   -7.937192|    1.457388|
|         305|  7.8613e+00|   -4.681123|   -4.831507|   -5.391206|   -4.898586|   -4.969652|   -7.937284|    1.457357|
|         306|  7.8616e+00|   -4.680890|   -4.831122|   -5.391244|   -4.898297|   -4.969312|   -7.937353|    1.457325|
|         307|  7.8625e+00|   -4.680664|   -4.830743|   -5.391284|   -4.898014|   -4.968976|   -7.937399|    1.457293|
|         308|  7.8621e+00|   -4.680442|   -4.830370|   -5.391326|   -4.897735|   -4.968646|   -7.937421|    1.457260|
|         309|  7.8613e+00|   -4.680227|   -4.830002|   -5.391370|   -4.897462|   -4.968320|   -7.937421|    1.457228|
|         310|  7.8603e+00|   -4.680017|   -4.829641|   -5.391416|   -4.897195|   -4.968000|   -7.937397|    1.457195|
|         311|  7.8594e+00|   -4.679813|   -4.829286|   -5.391467|   -4.896933|   -4.967686|   -7.937351|    1.457162|
|         312|  7.8585e+00|   -4.679615|   -4.828937|   -5.391521|   -4.896678|   -4.967377|   -7.937281|    1.457129|
|         313|  7.8574e+00|   -4.679423|   -4.828594|   -5.391578|   -4.896428|   -4.967072|   -7.937188|    1.457096|
|         314|  7.8564e+00|   -4.679236|   -4.828257|   -5.391636|   -4.896183|   -4.966773|   -7.937072|    1.457062|
|         315|  7.8554e+00|   -4.679055|   -4.827927|   -5.391697|   -4.895944|   -4.966480|   -7.936932|    1.457029|
|         316|  7.8541e+00|   -4.678880|   -4.827603|   -5.391760|   -4.895711|   -4.966192|   -7.936770|    1.456995|
|         317|  7.8534e+00|   -4.678711|   -4.827285|   -5.391826|   -4.895484|   -4.965910|   -7.936585|    1.456961|
|         318|  7.8524e+00|   -4.678548|   -4.826975|   -5.391894|   -4.895263|   -4.965634|   -7.936376|    1.456927|
|         319|  7.8512e+00|   -4.678391|   -4.826671|   -5.391963|   -4.895047|   -4.965363|   -7.936145|    1.456892|
|         320|  7.8498e+00|   -4.678240|   -4.826373|   -5.392035|   -4.894837|   -4.965098|   -7.935891|    1.456858|
|         321|  7.8486e+00|   -4.678094|   -4.826082|   -5.392110|   -4.894632|   -4.964838|   -7.935614|    1.456823|
|         322|  7.8478e+00|   -4.677955|   -4.825797|   -5.392187|   -4.894434|   -4.964584|   -7.935315|    1.456788|
|         323|  7.8466e+00|   -4.677824|   -4.825521|   -5.392267|   -4.894244|   -4.964338|   -7.934993|    1.456753|
|         324|  7.8466e+00|   -4.677697|   -4.825250|   -5.392347|   -4.894058|   -4.964097|   -7.934648|    1.456718|
|         325|  7.8469e+00|   -4.677576|   -4.824986|   -5.392429|   -4.893877|   -4.963861|   -7.934282|    1.456683|
|         326|  7.8475e+00|   -4.677461|   -4.824728|   -5.392511|   -4.893702|   -4.963630|   -7.933893|    1.456647|
|         327|  7.8474e+00|   -4.677350|   -4.824475|   -5.392594|   -4.893532|   -4.963403|   -7.933481|    1.456611|
|         328|  7.8465e+00|   -4.677245|   -4.824229|   -5.392679|   -4.893366|   -4.963182|   -7.933048|    1.456576|
|         329|  7.8461e+00|   -4.677145|   -4.823989|   -5.392766|   -4.893207|   -4.962966|   -7.932593|    1.456540|
|         330|  7.8454e+00|   -4.677052|   -4.823756|   -5.392857|   -4.893052|   -4.962756|   -7.932117|    1.456503|
|         331|  7.8448e+00|   -4.676964|   -4.823529|   -5.392950|   -4.892904|   -4.962552|   -7.931619|    1.456467|
|         332|  7.8443e+00|   -4.676882|   -4.823309|   -5.393045|   -4.892760|   -4.962354|   -7.931099|    1.456431|
|         333|  7.8437e+00|   -4.676806|   -4.823096|   -5.393142|   -4.892622|   -4.962161|   -7.930559|    1.456394|
|         334|  7.8432e+00|   -4.676735|   -4.822888|   -5.393240|   -4.892489|   -4.961972|   -7.929998|    1.456358|
|         335|  7.8425e+00|   -4.676668|   -4.822686|   -5.393339|   -4.892360|   -4.961788|   -7.929416|    1.456321|
|         336|  7.8418e+00|   -4.676607|   -4.822490|   -5.393440|   -4.892236|   -4.961609|   -7.928814|    1.456284|
|         337|  7.8415e+00|   -4.676550|   -4.822300|   -5.393542|   -4.892117|   -4.961435|   -7.928192|    1.456247|
|         338|  7.8405e+00|   -4.676498|   -4.822115|   -5.393645|   -4.892002|   -4.961265|   -7.927549|    1.456210|
|         339|  7.8413e+00|   -4.676451|   -4.821936|   -5.393749|   -4.891892|   -4.961100|   -7.926886|    1.456173|
|         340|  7.8417e+00|   -4.676409|   -4.821763|   -5.393855|   -4.891786|   -4.960939|   -7.926204|    1.456135|
|         341|  7.8413e+00|   -4.676371|   -4.821594|   -5.393961|   -4.891684|   -4.960783|   -7.925502|    1.456098|
|         342|  7.8406e+00|   -4.676338|   -4.821432|   -5.394069|   -4.891587|   -4.960631|   -7.924781|    1.456060|
|         343|  7.8399e+00|   -4.676309|   -4.821274|   -5.394178|   -4.891494|   -4.960483|   -7.924041|    1.456023|
|         344|  7.8390e+00|   -4.676283|   -4.821120|   -5.394288|   -4.891404|   -4.960339|   -7.923282|    1.455985|
|         345|  7.8386e+00|   -4.676261|   -4.820970|   -5.394400|   -4.891318|   -4.960197|   -7.922504|    1.455947|
|         346|  7.8378e+00|   -4.676243|   -4.820825|   -5.394514|   -4.891235|   -4.960060|   -7.921709|    1.455909|
|         347|  7.8365e+00|   -4.676230|   -4.820685|   -5.394630|   -4.891157|   -4.959927|   -7.920895|    1.455871|
|         348|  7.8356e+00|   -4.676220|   -4.820550|   -5.394747|   -4.891083|   -4.959798|   -7.920063|    1.455833|
|         349|  7.8347e+00|   -4.676215|   -4.820420|   -5.394865|   -4.891012|   -4.959672|   -7.919214|    1.455795|
|         350|  7.8342e+00|   -4.676213|   -4.820294|   -5.394986|   -4.890945|   -4.959551|   -7.918347|    1.455757|
|         351|  7.8335e+00|   -4.676222|   -4.820178|   -5.395107|   -4.890889|   -4.959437|   -7.917464|    1.455719|
|         352|  7.8327e+00|   -4.676237|   -4.820071|   -5.395230|   -4.890841|   -4.959330|   -7.916563|    1.455681|
|         353|  7.8318e+00|   -4.676258|   -4.819969|   -5.395355|   -4.890797|   -4.959228|   -7.915647|    1.455642|
|         354|  7.8311e+00|   -4.676283|   -4.819873|   -5.395483|   -4.890758|   -4.959132|   -7.914714|    1.455604|
|         355|  7.8308e+00|   -4.676315|   -4.819783|   -5.395614|   -4.890725|   -4.959041|   -7.913765|    1.455566|
|         356|  7.8309e+00|   -4.676351|   -4.819699|   -5.395746|   -4.890696|   -4.958955|   -7.912800|    1.455527|
|         357|  7.8305e+00|   -4.676390|   -4.819618|   -5.395880|   -4.890669|   -4.958871|   -7.911820|    1.455489|
|         358|  7.8298e+00|   -4.676432|   -4.819542|   -5.396014|   -4.890646|   -4.958791|   -7.910824|    1.455450|
|         359|  7.8293e+00|   -4.676478|   -4.819470|   -5.396149|   -4.890627|   -4.958714|   -7.909814|    1.455412|
|         360|  7.8285e+00|   -4.676528|   -4.819403|   -5.396286|   -4.890610|   -4.958640|   -7.908788|    1.455373|
|         361|  7.8285e+00|   -4.676581|   -4.819339|   -5.396425|   -4.890597|   -4.958570|   -7.907748|    1.455335|
|         362|  7.8285e+00|   -4.676638|   -4.819280|   -5.396565|   -4.890587|   -4.958504|   -7.906694|    1.455296|
|         363|  7.8282e+00|   -4.676699|   -4.819226|   -5.396707|   -4.890581|   -4.958441|   -7.905626|    1.455257|
|         364|  7.8275e+00|   -4.676764|   -4.819176|   -5.396850|   -4.890579|   -4.958383|   -7.904544|    1.455219|
|         365|  7.8269e+00|   -4.676832|   -4.819130|   -5.396996|   -4.890580|   -4.958327|   -7.903449|    1.455180|
|         366|  7.8260e+00|   -4.676905|   -4.819089|   -5.397144|   -4.890584|   -4.958276|   -7.902341|    1.455141|
|         367|  7.8251e+00|   -4.676980|   -4.819052|   -5.397294|   -4.890592|   -4.958228|   -7.901220|    1.455103|
|         368|  7.8241e+00|   -4.677060|   -4.819018|   -5.397446|   -4.890604|   -4.958184|   -7.900087|    1.455064|
|         369|  7.8235e+00|   -4.677143|   -4.818989|   -5.397600|   -4.890618|   -4.958143|   -7.898941|    1.455025|
|         370|  7.8226e+00|   -4.677231|   -4.818966|   -5.397757|   -4.890638|   -4.958107|   -7.897783|    1.454987|
|         371|  7.8219e+00|   -4.677322|   -4.818945|   -5.397916|   -4.890660|   -4.958074|   -7.896614|    1.454948|
|         372|  7.8212e+00|   -4.677415|   -4.818929|   -5.398074|   -4.890684|   -4.958043|   -7.895433|    1.454909|
|         373|  7.8203e+00|   -4.677512|   -4.818916|   -5.398233|   -4.890712|   -4.958016|   -7.894242|    1.454871|
|         374|  7.8192e+00|   -4.677612|   -4.818907|   -5.398393|   -4.890742|   -4.957991|   -7.893039|    1.454832|
|         375|  7.8178e+00|   -4.677714|   -4.818901|   -5.398555|   -4.890775|   -4.957969|   -7.891826|    1.454793|
|         376|  7.8163e+00|   -4.677821|   -4.818899|   -5.398718|   -4.890810|   -4.957951|   -7.890602|    1.454755|
|         377|  7.8156e+00|   -4.677931|   -4.818901|   -5.398884|   -4.890849|   -4.957936|   -7.889368|    1.454716|
|         378|  7.8147e+00|   -4.678044|   -4.818907|   -5.399051|   -4.890892|   -4.957924|   -7.888123|    1.454678|
|         379|  7.8136e+00|   -4.678161|   -4.818917|   -5.399220|   -4.890937|   -4.957916|   -7.886869|    1.454639|
|         380|  7.8132e+00|   -4.678281|   -4.818930|   -5.399391|   -4.890986|   -4.957912|   -7.885606|    1.454600|
|         381|  7.8122e+00|   -4.678405|   -4.818947|   -5.399565|   -4.891038|   -4.957910|   -7.884334|    1.454562|
|         382|  7.8114e+00|   -4.678533|   -4.818969|   -5.399741|   -4.891094|   -4.957913|   -7.883052|    1.454523|
|         383|  7.8108e+00|   -4.678665|   -4.818996|   -5.399920|   -4.891152|   -4.957920|   -7.881762|    1.454485|
|         384|  7.8100e+00|   -4.678801|   -4.819026|   -5.400099|   -4.891215|   -4.957930|   -7.880463|    1.454446|
|         385|  7.8089e+00|   -4.678939|   -4.819060|   -5.400279|   -4.891280|   -4.957943|   -7.879156|    1.454407|
|         386|  7.8101e+00|   -4.679081|   -4.819097|   -5.400460|   -4.891348|   -4.957959|   -7.877842|    1.454369|
|         387|  7.8113e+00|   -4.679226|   -4.819138|   -5.400642|   -4.891420|   -4.957978|   -7.876519|    1.454330|
|         388|  7.8115e+00|   -4.679375|   -4.819182|   -5.400824|   -4.891494|   -4.958000|   -7.875190|    1.454292|
|         389|  7.8110e+00|   -4.679527|   -4.819230|   -5.401008|   -4.891572|   -4.958026|   -7.873853|    1.454253|
|         390|  7.8107e+00|   -4.679682|   -4.819282|   -5.401193|   -4.891652|   -4.958054|   -7.872509|    1.454215|
|         391|  7.8101e+00|   -4.679840|   -4.819337|   -5.401378|   -4.891736|   -4.958086|   -7.871159|    1.454176|
|         392|  7.8094e+00|   -4.680001|   -4.819396|   -5.401564|   -4.891822|   -4.958120|   -7.869802|    1.454138|
|         393|  7.8089e+00|   -4.680166|   -4.819459|   -5.401753|   -4.891912|   -4.958158|   -7.868438|    1.454099|
|         394|  7.8081e+00|   -4.680334|   -4.819524|   -5.401942|   -4.892005|   -4.958199|   -7.867069|    1.454061|
|         395|  7.8070e+00|   -4.680505|   -4.819593|   -5.402131|   -4.892100|   -4.958241|   -7.865694|    1.454022|
|         396|  7.8060e+00|   -4.680678|   -4.819664|   -5.402320|   -4.892197|   -4.958286|   -7.864313|    1.453984|
|         397|  7.8050e+00|   -4.680853|   -4.819737|   -5.402510|   -4.892297|   -4.958333|   -7.862927|    1.453945|
|         398|  7.8037e+00|   -4.681030|   -4.819814|   -5.402698|   -4.892398|   -4.958382|   -7.861536|    1.453906|
|         399|  7.8032e+00|   -4.681209|   -4.819892|   -5.402885|   -4.892501|   -4.958432|   -7.860140|    1.453868|
|         400|  7.8023e+00|   -4.681390|   -4.819973|   -5.403071|   -4.892605|   -4.958483|   -7.858738|    1.453829|
|         401|  7.8017e+00|   -4.681573|   -4.820056|   -5.403258|   -4.892711|   -4.958536|   -7.857332|    1.453791|
|         402|  7.8009e+00|   -4.681760|   -4.820144|   -5.403448|   -4.892821|   -4.958593|   -7.855922|    1.453752|
|         403|  7.8002e+00|   -4.681950|   -4.820234|   -5.403638|   -4.892934|   -4.958652|   -7.854508|    1.453714|
|         404|  7.8001e+00|   -4.682141|   -4.820327|   -5.403829|   -4.893048|   -4.958713|   -7.853090|    1.453675|
|         405|  7.7997e+00|   -4.682335|   -4.820422|   -5.404020|   -4.893164|   -4.958776|   -7.851668|    1.453637|
|         406|  7.7988e+00|   -4.682531|   -4.820521|   -5.404212|   -4.893282|   -4.958841|   -7.850243|    1.453598|
|         407|  7.7981e+00|   -4.682729|   -4.820621|   -5.404405|   -4.893403|   -4.958908|   -7.848814|    1.453559|
|         408|  7.7971e+00|   -4.682930|   -4.820725|   -5.404598|   -4.893526|   -4.958977|   -7.847382|    1.453521|
|         409|  7.7962e+00|   -4.683134|   -4.820833|   -5.404792|   -4.893652|   -4.959049|   -7.845948|    1.453482|
|         410|  7.7957e+00|   -4.683341|   -4.820943|   -5.404986|   -4.893780|   -4.959124|   -7.844510|    1.453443|
|         411|  7.7950e+00|   -4.683550|   -4.821057|   -5.405182|   -4.893912|   -4.959202|   -7.843070|    1.453405|
|         412|  7.7944e+00|   -4.683762|   -4.821174|   -5.405378|   -4.894045|   -4.959281|   -7.841628|    1.453366|
|         413|  7.7937e+00|   -4.683975|   -4.821294|   -5.405574|   -4.894180|   -4.959362|   -7.840184|    1.453327|
|         414|  7.7934e+00|   -4.684191|   -4.821416|   -5.405770|   -4.894318|   -4.959446|   -7.838738|    1.453288|
|         415|  7.7930e+00|   -4.684409|   -4.821542|   -5.405966|   -4.894458|   -4.959532|   -7.837289|    1.453249|
|         416|  7.7924e+00|   -4.684630|   -4.821671|   -5.406164|   -4.894601|   -4.959620|   -7.835839|    1.453211|
|         417|  7.7916e+00|   -4.684854|   -4.821802|   -5.406365|   -4.894747|   -4.959712|   -7.834388|    1.453172|
|         418|  7.7913e+00|   -4.685080|   -4.821937|   -5.406566|   -4.894895|   -4.959805|   -7.832936|    1.453133|
|         419|  7.7911e+00|   -4.685309|   -4.822075|   -5.406769|   -4.895046|   -4.959902|   -7.831482|    1.453094|
|         420|  7.7911e+00|   -4.685541|   -4.822216|   -5.406973|   -4.895200|   -4.960001|   -7.830027|    1.453055|
|         421|  7.7905e+00|   -4.685776|   -4.822360|   -5.407180|   -4.895358|   -4.960103|   -7.828577|    1.453016|
|         422|  7.7899e+00|   -4.686013|   -4.822508|   -5.407388|   -4.895518|   -4.960208|   -7.827128|    1.452977|
|         423|  7.7895e+00|   -4.686256|   -4.822661|   -5.407601|   -4.895683|   -4.960318|   -7.825677|    1.452938|
|         424|  7.7893e+00|   -4.686507|   -4.822824|   -5.407825|   -4.895856|   -4.960439|   -7.824226|    1.452899|
|         425|  7.7887e+00|   -4.686761|   -4.822989|   -5.408050|   -4.896031|   -4.960561|   -7.822774|    1.452860|
|         426|  7.7881e+00|   -4.687017|   -4.823157|   -5.408276|   -4.896210|   -4.960686|   -7.821322|    1.452821|
|         427|  7.7876e+00|   -4.687277|   -4.823329|   -5.408503|   -4.896391|   -4.960814|   -7.819870|    1.452782|
|         428|  7.7872e+00|   -4.687541|   -4.823506|   -5.408734|   -4.896576|   -4.960947|   -7.818418|    1.452743|
|         429|  7.7868e+00|   -4.687808|   -4.823686|   -5.408966|   -4.896765|   -4.961083|   -7.816965|    1.452704|
|         430|  7.7865e+00|   -4.688079|   -4.823871|   -5.409203|   -4.896959|   -4.961223|   -7.815513|    1.452664|
|         431|  7.7862e+00|   -4.688355|   -4.824059|   -5.409444|   -4.897156|   -4.961368|   -7.814062|    1.452625|
|         432|  7.7855e+00|   -4.688633|   -4.824251|   -5.409686|   -4.897356|   -4.961515|   -7.812611|    1.452586|
|         433|  7.7853e+00|   -4.688915|   -4.824447|   -5.409931|   -4.897559|   -4.961666|   -7.811162|    1.452547|
|         434|  7.7851e+00|   -4.689199|   -4.824646|   -5.410178|   -4.897766|   -4.961819|   -7.809713|    1.452507|
|         435|  7.7849e+00|   -4.689487|   -4.824848|   -5.410427|   -4.897976|   -4.961976|   -7.808265|    1.452468|
|         436|  7.7843e+00|   -4.689777|   -4.825053|   -5.410676|   -4.898188|   -4.962135|   -7.806818|    1.452429|
|         437|  7.7840e+00|   -4.690070|   -4.825262|   -5.410927|   -4.898404|   -4.962297|   -7.805372|    1.452390|
|         438|  7.7834e+00|   -4.690367|   -4.825474|   -5.411182|   -4.898623|   -4.962462|   -7.803927|    1.452350|
|         439|  7.7826e+00|   -4.690667|   -4.825690|   -5.411440|   -4.898845|   -4.962631|   -7.802484|    1.452311|
|         440|  7.7821e+00|   -4.690970|   -4.825908|   -5.411701|   -4.899071|   -4.962802|   -7.801042|    1.452272|
|         441|  7.7814e+00|   -4.691277|   -4.826131|   -5.411964|   -4.899301|   -4.962978|   -7.799603|    1.452232|
|         442|  7.7806e+00|   -4.691587|   -4.826357|   -5.412230|   -4.899534|   -4.963156|   -7.798165|    1.452193|
|         443|  7.7801e+00|   -4.691901|   -4.826588|   -5.412499|   -4.899771|   -4.963339|   -7.796730|    1.452154|
|         444|  7.7796e+00|   -4.692218|   -4.826822|   -5.412769|   -4.900010|   -4.963524|   -7.795296|    1.452114|
|         445|  7.7789e+00|   -4.692539|   -4.827059|   -5.413041|   -4.900252|   -4.963712|   -7.793865|    1.452075|
|         446|  7.7782e+00|   -4.692861|   -4.827299|   -5.413314|   -4.900497|   -4.963903|   -7.792437|    1.452036|
|         447|  7.7776e+00|   -4.693187|   -4.827543|   -5.413589|   -4.900745|   -4.964096|   -7.791010|    1.451996|
|         448|  7.7771e+00|   -4.693515|   -4.827789|   -5.413867|   -4.900996|   -4.964292|   -7.789587|    1.451957|
|         449|  7.7766e+00|   -4.693847|   -4.828039|   -5.414149|   -4.901250|   -4.964491|   -7.788166|    1.451918|
|         450|  7.7776e+00|   -4.694183|   -4.828292|   -5.414433|   -4.901508|   -4.964693|   -7.786748|    1.451878|
+-----------------------------------------------------------------------+
|        File Writing Summary       |              Filename             |
+-----------------------------------------------------------------------+
|SU2 binary restart                 |restart_flow.dat                   |
|Paraview                           |flow.vtu                           |
|Paraview surface                   |surface_flow.vtu                   |
+-----------------------------------------------------------------------+
+--------------------------------------------------------------------------------------------------------------------+
|  Inner_Iter|   Time(sec)|    rms[Rho]|   rms[RhoU]|   rms[RhoV]|   rms[RhoW]|   rms[RhoE]|     rms[nu]|          CD|
+--------------------------------------------------------------------------------------------------------------------+
|         451|  7.8318e+00|   -4.694521|   -4.828548|   -5.414719|   -4.901769|   -4.964899|   -7.785332|    1.451839|
|         452|  7.8314e+00|   -4.694863|   -4.828808|   -5.415009|   -4.902033|   -4.965107|   -7.783920|    1.451800|
|         453|  7.8309e+00|   -4.695207|   -4.829071|   -5.415299|   -4.902299|   -4.965318|   -7.782510|    1.451760|
|         454|  7.8302e+00|   -4.695555|   -4.829336|   -5.415593|   -4.902569|   -4.965531|   -7.781104|    1.451721|
|         455|  7.8297e+00|   -4.695908|   -4.829607|   -5.415891|   -4.902844|   -4.965750|   -7.779701|    1.451682|
|         456|  7.8292e+00|   -4.696263|   -4.829881|   -5.416189|   -4.903121|   -4.965971|   -7.778302|    1.451643|
|         457|  7.8286e+00|   -4.696622|   -4.830158|   -5.416490|   -4.903401|   -4.966194|   -7.776907|    1.451604|
|         458|  7.8279e+00|   -4.696984|   -4.830438|   -5.416794|   -4.903685|   -4.966421|   -7.775514|    1.451565|
|         459|  7.8274e+00|   -4.697349|   -4.830721|   -5.417099|   -4.903971|   -4.966650|   -7.774126|    1.451526|
|         460|  7.8264e+00|   -4.697715|   -4.831006|   -5.417405|   -4.904260|   -4.966880|   -7.772740|    1.451487|
|         461|  7.8257e+00|   -4.698085|   -4.831295|   -5.417712|   -4.904551|   -4.967113|   -7.771357|    1.451448|
|         462|  7.8253e+00|   -4.698458|   -4.831586|   -5.418023|   -4.904846|   -4.967349|   -7.769979|    1.451409|
|         463|  7.8252e+00|   -4.698834|   -4.831881|   -5.418333|   -4.905143|   -4.967587|   -7.768605|    1.451370|
|         464|  7.8246e+00|   -4.699213|   -4.832180|   -5.418645|   -4.905443|   -4.967828|   -7.767237|    1.451331|
|         465|  7.8242e+00|   -4.699595|   -4.832481|   -5.418957|   -4.905747|   -4.968071|   -7.765872|    1.451292|
|         466|  7.8236e+00|   -4.699979|   -4.832785|   -5.419270|   -4.906052|   -4.968316|   -7.764512|    1.451254|
|         467|  7.8227e+00|   -4.700366|   -4.833091|   -5.419583|   -4.906359|   -4.968562|   -7.763156|    1.451215|
|         468|  7.8222e+00|   -4.700755|   -4.833401|   -5.419898|   -4.906669|   -4.968811|   -7.761804|    1.451177|
|         469|  7.8217e+00|   -4.701148|   -4.833714|   -5.420216|   -4.906983|   -4.969063|   -7.760457|    1.451138|
|         470|  7.8209e+00|   -4.701548|   -4.834034|   -5.420540|   -4.907302|   -4.969321|   -7.759114|    1.451100|
|         471|  7.8201e+00|   -4.701950|   -4.834357|   -5.420865|   -4.907625|   -4.969583|   -7.757775|    1.451061|
|         472|  7.8199e+00|   -4.702358|   -4.834685|   -5.421192|   -4.907952|   -4.969848|   -7.756441|    1.451023|
|         473|  7.8195e+00|   -4.702768|   -4.835015|   -5.421519|   -4.908282|   -4.970115|   -7.755112|    1.450985|
|         474|  7.8190e+00|   -4.703180|   -4.835348|   -5.421847|   -4.908614|   -4.970384|   -7.753787|    1.450947|
|         475|  7.8187e+00|   -4.703597|   -4.835685|   -5.422177|   -4.908949|   -4.970657|   -7.752467|    1.450909|
|         476|  7.8182e+00|   -4.704016|   -4.836026|   -5.422507|   -4.909288|   -4.970932|   -7.751152|    1.450871|
|         477|  7.8176e+00|   -4.704440|   -4.836371|   -5.422838|   -4.909630|   -4.971210|   -7.749842|    1.450833|
|         478|  7.8177e+00|   -4.704867|   -4.836719|   -5.423171|   -4.909976|   -4.971492|   -7.748537|    1.450795|
|         479|  7.8174e+00|   -4.705299|   -4.837072|   -5.423504|   -4.910326|   -4.971777|   -7.747237|    1.450757|
|         480|  7.8175e+00|   -4.705734|   -4.837428|   -5.423838|   -4.910679|   -4.972066|   -7.745942|    1.450720|
|         481|  7.8170e+00|   -4.706172|   -4.837789|   -5.424174|   -4.911036|   -4.972357|   -7.744652|    1.450682|
|         482|  7.8164e+00|   -4.706614|   -4.838153|   -5.424510|   -4.911396|   -4.972652|   -7.743368|    1.450645|
|         483|  7.8156e+00|   -4.707060|   -4.838522|   -5.424848|   -4.911761|   -4.972951|   -7.742089|    1.450607|
|         484|  7.8146e+00|   -4.707510|   -4.838896|   -5.425187|   -4.912129|   -4.973253|   -7.740816|    1.450570|
|         485|  7.8141e+00|   -4.707964|   -4.839274|   -5.425529|   -4.912501|   -4.973559|   -7.739547|    1.450533|
|         486|  7.8134e+00|   -4.708422|   -4.839656|   -5.425873|   -4.912878|   -4.973869|   -7.738285|    1.450496|
|         487|  7.8126e+00|   -4.708885|   -4.840044|   -5.426218|   -4.913259|   -4.974183|   -7.737028|    1.450459|
|         488|  7.8119e+00|   -4.709351|   -4.840435|   -5.426563|   -4.913643|   -4.974501|   -7.735778|    1.450422|
|         489|  7.8114e+00|   -4.709821|   -4.840832|   -5.426909|   -4.914031|   -4.974822|   -7.734533|    1.450385|
|         490|  7.8107e+00|   -4.710295|   -4.841233|   -5.427256|   -4.914424|   -4.975148|   -7.733294|    1.450348|
|         491|  7.8102e+00|   -4.710774|   -4.841638|   -5.427604|   -4.914821|   -4.975477|   -7.732061|    1.450311|
|         492|  7.8095e+00|   -4.711257|   -4.842049|   -5.427954|   -4.915222|   -4.975811|   -7.730834|    1.450275|
|         493|  7.8091e+00|   -4.711743|   -4.842464|   -5.428306|   -4.915627|   -4.976149|   -7.729613|    1.450238|
|         494|  7.8090e+00|   -4.712234|   -4.842884|   -5.428658|   -4.916036|   -4.976490|   -7.728398|    1.450202|
|         495|  7.8086e+00|   -4.712729|   -4.843308|   -5.429011|   -4.916449|   -4.976835|   -7.727189|    1.450166|
|         496|  7.8081e+00|   -4.713228|   -4.843737|   -5.429366|   -4.916866|   -4.977185|   -7.725986|    1.450129|
|         497|  7.8071e+00|   -4.713732|   -4.844171|   -5.429722|   -4.917287|   -4.977538|   -7.724789|    1.450093|
|         498|  7.8064e+00|   -4.714239|   -4.844609|   -5.430079|   -4.917712|   -4.977896|   -7.723599|    1.450057|
|         499|  7.8056e+00|   -4.714751|   -4.845052|   -5.430436|   -4.918141|   -4.978257|   -7.722415|    1.450021|
|         500|  7.8050e+00|   -4.715266|   -4.845500|   -5.430796|   -4.918574|   -4.978623|   -7.721237|    1.449985|
|         501|  7.8043e+00|   -4.715786|   -4.845953|   -5.431157|   -4.919012|   -4.978992|   -7.720066|    1.449950|
|         502|  7.8036e+00|   -4.716312|   -4.846412|   -5.431521|   -4.919456|   -4.979368|   -7.718901|    1.449914|
|         503|  7.8028e+00|   -4.716843|   -4.846877|   -5.431887|   -4.919903|   -4.979748|   -7.717742|    1.449878|
|         504|  7.8020e+00|   -4.717378|   -4.847346|   -5.432256|   -4.920355|   -4.980133|   -7.716590|    1.449843|
|         505|  7.8015e+00|   -4.717918|   -4.847821|   -5.432626|   -4.920812|   -4.980522|   -7.715444|    1.449807|
|         506|  7.8008e+00|   -4.718462|   -4.848300|   -5.432998|   -4.921273|   -4.980915|   -7.714306|    1.449772|
|         507|  7.8000e+00|   -4.719010|   -4.848784|   -5.433371|   -4.921738|   -4.981312|   -7.713174|    1.449737|
|         508|  7.7993e+00|   -4.719564|   -4.849274|   -5.433746|   -4.922208|   -4.981715|   -7.712049|    1.449701|
|         509|  7.7987e+00|   -4.720128|   -4.849776|   -5.434126|   -4.922687|   -4.982128|   -7.710931|    1.449666|
|         510|  7.7982e+00|   -4.720696|   -4.850282|   -5.434509|   -4.923170|   -4.982545|   -7.709820|    1.449631|
|         511|  7.7974e+00|   -4.721267|   -4.850791|   -5.434892|   -4.923657|   -4.982965|   -7.708716|    1.449596|
|         512|  7.7966e+00|   -4.721843|   -4.851305|   -5.435275|   -4.924147|   -4.983388|   -7.707620|    1.449561|
|         513|  7.7963e+00|   -4.722422|   -4.851823|   -5.435661|   -4.924642|   -4.983816|   -7.706530|    1.449526|
|         514|  7.7957e+00|   -4.723006|   -4.852345|   -5.436049|   -4.925141|   -4.984248|   -7.705448|    1.449491|
|         515|  7.7954e+00|   -4.723592|   -4.852872|   -5.436439|   -4.925644|   -4.984683|   -7.704373|    1.449456|
|         516|  7.7947e+00|   -4.724183|   -4.853402|   -5.436831|   -4.926150|   -4.985121|   -7.703306|    1.449422|
|         517|  7.7942e+00|   -4.724778|   -4.853936|   -5.437225|   -4.926661|   -4.985563|   -7.702245|    1.449387|
|         518|  7.7937e+00|   -4.725381|   -4.854479|   -5.437618|   -4.927181|   -4.986012|   -7.701192|    1.449352|
|         519|  7.7932e+00|   -4.725988|   -4.855025|   -5.438013|   -4.927704|   -4.986465|   -7.700146|    1.449318|
|         520|  7.7929e+00|   -4.726598|   -4.855574|   -5.438408|   -4.928230|   -4.986920|   -7.699107|    1.449283|
|         521|  7.7923e+00|   -4.727212|   -4.856128|   -5.438805|   -4.928760|   -4.987378|   -7.698076|    1.449248|
|         522|  7.7916e+00|   -4.727829|   -4.856686|   -5.439204|   -4.929294|   -4.987840|   -7.697051|    1.449214|
|         523|  7.7911e+00|   -4.728451|   -4.857248|   -5.439604|   -4.929832|   -4.988306|   -7.696035|    1.449179|
|         524|  7.7906e+00|   -4.729076|   -4.857814|   -5.440007|   -4.930373|   -4.988776|   -7.695025|    1.449145|
|         525|  7.7904e+00|   -4.729705|   -4.858385|   -5.440412|   -4.930919|   -4.989250|   -7.694023|    1.449111|
|         526|  7.7905e+00|   -4.730338|   -4.858961|   -5.440820|   -4.931469|   -4.989727|   -7.693028|    1.449076|
|         527|  7.7901e+00|   -4.730975|   -4.859540|   -5.441228|   -4.932022|   -4.990208|   -7.692040|    1.449042|
|         528|  7.7895e+00|   -4.731616|   -4.860124|   -5.441639|   -4.932579|   -4.990693|   -7.691060|    1.449007|
|         529|  7.7891e+00|   -4.732261|   -4.860713|   -5.442052|   -4.933141|   -4.991182|   -7.690087|    1.448973|
|         530|  7.7886e+00|   -4.732911|   -4.861306|   -5.442469|   -4.933707|   -4.991676|   -7.689122|    1.448939|
|         531|  7.7881e+00|   -4.733566|   -4.861904|   -5.442890|   -4.934278|   -4.992174|   -7.688165|    1.448904|
|         532|  7.7873e+00|   -4.734226|   -4.862507|   -5.443313|   -4.934853|   -4.992677|   -7.687215|    1.448870|
|         533|  7.7867e+00|   -4.734890|   -4.863115|   -5.443737|   -4.935433|   -4.993184|   -7.686272|    1.448836|
|         534|  7.7861e+00|   -4.735558|   -4.863728|   -5.444163|   -4.936017|   -4.993695|   -7.685337|    1.448801|
|         535|  7.7856e+00|   -4.736230|   -4.864345|   -5.444590|   -4.936605|   -4.994210|   -7.684410|    1.448767|
|         536|  7.7850e+00|   -4.736906|   -4.864966|   -5.445018|   -4.937197|   -4.994728|   -7.683489|    1.448733|
|         537|  7.7844e+00|   -4.737585|   -4.865592|   -5.445447|   -4.937792|   -4.995250|   -7.682577|    1.448698|
|         538|  7.7840e+00|   -4.738268|   -4.866222|   -5.445876|   -4.938391|   -4.995776|   -7.681672|    1.448664|
[...]
|        8552|  7.3728e+00|   -4.997407|   -5.140538|   -5.770790|   -5.222065|   -5.281844|   -8.185270|    1.412381|
|        8553|  7.3728e+00|   -4.997296|   -5.140363|   -5.770786|   -5.221878|   -5.281633|   -8.186636|    1.412452|
|        8554|  7.3728e+00|   -4.997192|   -5.140194|   -5.770785|   -5.221697|   -5.281426|   -8.188000|    1.412525|
|        8555|  7.3728e+00|   -4.997093|   -5.140031|   -5.770788|   -5.221521|   -5.281225|   -8.189361|    1.412598|
|        8556|  7.3727e+00|   -4.996998|   -5.139873|   -5.770791|   -5.221350|   -5.281028|   -8.190719|    1.412671|
|        8557|  7.3727e+00|   -4.996909|   -5.139721|   -5.770796|   -5.221185|   -5.280836|   -8.192074|    1.412745|
|        8558|  7.3727e+00|   -4.996824|   -5.139574|   -5.770801|   -5.221024|   -5.280648|   -8.193426|    1.412820|
|        8559|  7.3727e+00|   -4.996744|   -5.139433|   -5.770807|   -5.220869|   -5.280465|   -8.194774|    1.412895|
|        8560|  7.3726e+00|   -4.996666|   -5.139295|   -5.770808|   -5.220717|   -5.280282|   -8.196118|    1.412971|
|        8561|  7.3726e+00|   -4.996591|   -5.139160|   -5.770808|   -5.220568|   -5.280102|   -8.197459|    1.413048|
|        8562|  7.3726e+00|   -4.996521|   -5.139031|   -5.770809|   -5.220424|   -5.279927|   -8.198795|    1.413125|
|        8563|  7.3725e+00|   -4.996456|   -5.138907|   -5.770813|   -5.220285|   -5.279757|   -8.200127|    1.413202|
|        8564|  7.3725e+00|   -4.996396|   -5.138789|   -5.770820|   -5.220152|   -5.279591|   -8.201455|    1.413281|
|        8565|  7.3724e+00|   -4.996342|   -5.138677|   -5.770828|   -5.220025|   -5.279431|   -8.202778|    1.413359|
|        8566|  7.3724e+00|   -4.996290|   -5.138567|   -5.770839|   -5.219900|   -5.279273|   -8.204096|    1.413439|
|        8567|  7.3723e+00|   -4.996238|   -5.138456|   -5.770851|   -5.219774|   -5.279114|   -8.205408|    1.413519|
|        8568|  7.3723e+00|   -4.996191|   -5.138351|   -5.770867|   -5.219653|   -5.278960|   -8.206716|    1.413599|
|        8569|  7.3723e+00|   -4.996149|   -5.138252|   -5.770883|   -5.219538|   -5.278811|   -8.208017|    1.413680|
|        8570|  7.3722e+00|   -4.996113|   -5.138158|   -5.770903|   -5.219428|   -5.278668|   -8.209313|    1.413762|
|        8571|  7.3722e+00|   -4.996082|   -5.138070|   -5.770925|   -5.219324|   -5.278529|   -8.210603|    1.413844|
|        8572|  7.3722e+00|   -4.996058|   -5.137989|   -5.770950|   -5.219225|   -5.278397|   -8.211886|    1.413927|
|        8573|  7.3721e+00|   -4.996040|   -5.137914|   -5.770978|   -5.219134|   -5.278271|   -8.213163|    1.414010|
|        8574|  7.3721e+00|   -4.996028|   -5.137845|   -5.771009|   -5.219049|   -5.278151|   -8.214433|    1.414094|
|        8575|  7.3720e+00|   -4.996021|   -5.137781|   -5.771042|   -5.218969|   -5.278035|   -8.215696|    1.414178|
|        8576|  7.3720e+00|   -4.996020|   -5.137723|   -5.771079|   -5.218895|   -5.277925|   -8.216951|    1.414263|
|        8577|  7.3720e+00|   -4.996026|   -5.137671|   -5.771118|   -5.218827|   -5.277821|   -8.218199|    1.414349|
|        8578|  7.3719e+00|   -4.996037|   -5.137626|   -5.771159|   -5.218764|   -5.277722|   -8.219439|    1.414435|
|        8579|  7.3719e+00|   -4.996053|   -5.137585|   -5.771201|   -5.218706|   -5.277628|   -8.220671|    1.414522|
|        8580|  7.3718e+00|   -4.996075|   -5.137550|   -5.771247|   -5.218653|   -5.277540|   -8.221894|    1.414609|
|        8581|  7.3718e+00|   -4.996103|   -5.137522|   -5.771295|   -5.218607|   -5.277457|   -8.223108|    1.414697|
|        8582|  7.3718e+00|   -4.996138|   -5.137500|   -5.771347|   -5.218568|   -5.277381|   -8.224314|    1.414785|
|        8583|  7.3718e+00|   -4.996179|   -5.137483|   -5.771401|   -5.218534|   -5.277310|   -8.225511|    1.414874|
|        8584|  7.3717e+00|   -4.996226|   -5.137472|   -5.771458|   -5.218506|   -5.277245|   -8.226697|    1.414964|
|        8585|  7.3717e+00|   -4.996277|   -5.137466|   -5.771516|   -5.218482|   -5.277183|   -8.227874|    1.415054|
|        8586|  7.3717e+00|   -4.996335|   -5.137466|   -5.771577|   -5.218465|   -5.277128|   -8.229041|    1.415145|
|        8587|  7.3716e+00|   -4.996399|   -5.137471|   -5.771640|   -5.218454|   -5.277078|   -8.230198|    1.415236|
|        8588|  7.3716e+00|   -4.996469|   -5.137483|   -5.771706|   -5.218449|   -5.277034|   -8.231343|    1.415328|
|        8589|  7.3716e+00|   -4.996546|   -5.137500|   -5.771773|   -5.218450|   -5.276996|   -8.232478|    1.415420|
|        8590|  7.3715e+00|   -4.996629|   -5.137524|   -5.771843|   -5.218457|   -5.276964|   -8.233602|    1.415513|
|        8591|  7.3715e+00|   -4.996718|   -5.137553|   -5.771916|   -5.218470|   -5.276937|   -8.234713|    1.415606|
|        8592|  7.3714e+00|   -4.996814|   -5.137589|   -5.771991|   -5.218490|   -5.276916|   -8.235813|    1.415700|
|        8593|  7.3714e+00|   -4.996916|   -5.137630|   -5.772068|   -5.218516|   -5.276902|   -8.236901|    1.415795|
|        8594|  7.3714e+00|   -4.997025|   -5.137678|   -5.772148|   -5.218548|   -5.276893|   -8.237976|    1.415890|
|        8595|  7.3713e+00|   -4.997139|   -5.137731|   -5.772231|   -5.218587|   -5.276890|   -8.239039|    1.415985|
|        8596|  7.3713e+00|   -4.997260|   -5.137791|   -5.772315|   -5.218631|   -5.276892|   -8.240088|    1.416082|
|        8597|  7.3713e+00|   -4.997386|   -5.137856|   -5.772401|   -5.218682|   -5.276899|   -8.241124|    1.416178|
|        8598|  7.3712e+00|   -4.997519|   -5.137926|   -5.772488|   -5.218738|   -5.276911|   -8.242147|    1.416276|
|        8599|  7.3712e+00|   -4.997657|   -5.138003|   -5.772577|   -5.218801|   -5.276929|   -8.243155|    1.416373|
|        8600|  7.3712e+00|   -4.997800|   -5.138085|   -5.772666|   -5.218869|   -5.276952|   -8.244149|    1.416472|
|        8601|  7.3711e+00|   -4.997949|   -5.138173|   -5.772758|   -5.218943|   -5.276979|   -8.245129|    1.416571|
|        8602|  7.3711e+00|   -4.998104|   -5.138267|   -5.772851|   -5.219023|   -5.277012|   -8.246094|    1.416670|
|        8603|  7.3710e+00|   -4.998264|   -5.138366|   -5.772945|   -5.219108|   -5.277049|   -8.247043|    1.416770|
|        8604|  7.3710e+00|   -4.998430|   -5.138471|   -5.773042|   -5.219200|   -5.277091|   -8.247977|    1.416871|
|        8605|  7.3710e+00|   -4.998601|   -5.138582|   -5.773142|   -5.219297|   -5.277139|   -8.248895|    1.416972|
|        8606|  7.3709e+00|   -4.998778|   -5.138698|   -5.773243|   -5.219399|   -5.277191|   -8.249797|    1.417074|
|        8607|  7.3709e+00|   -4.998960|   -5.138819|   -5.773346|   -5.219507|   -5.277248|   -8.250682|    1.417176|
|        8608|  7.3709e+00|   -4.999147|   -5.138946|   -5.773450|   -5.219620|   -5.277309|   -8.251551|    1.417279|
|        8609|  7.3708e+00|   -4.999339|   -5.139078|   -5.773554|   -5.219739|   -5.277375|   -8.252402|    1.417382|
|        8610|  7.3708e+00|   -4.999536|   -5.139215|   -5.773661|   -5.219862|   -5.277445|   -8.253237|    1.417486|
|        8611|  7.3707e+00|   -4.999739|   -5.139358|   -5.773770|   -5.219992|   -5.277521|   -8.254053|    1.417590|
|        8612|  7.3707e+00|   -4.999947|   -5.139507|   -5.773881|   -5.220127|   -5.277601|   -8.254852|    1.417695|
|        8613|  7.3707e+00|   -5.000160|   -5.139660|   -5.773993|   -5.220267|   -5.277685|   -8.255632|    1.417801|
|        8614|  7.3706e+00|   -5.000378|   -5.139819|   -5.774107|   -5.220412|   -5.277774|   -8.256394|    1.417907|
|        8615|  7.3706e+00|   -5.000601|   -5.139983|   -5.774223|   -5.220563|   -5.277868|   -8.257137|    1.418014|
|        8616|  7.3705e+00|   -5.000830|   -5.140153|   -5.774340|   -5.220720|   -5.277966|   -8.257862|    1.418121|
|        8617|  7.3705e+00|   -5.001063|   -5.140327|   -5.774458|   -5.220881|   -5.278069|   -8.258566|    1.418229|
|        8618|  7.3705e+00|   -5.001301|   -5.140508|   -5.774579|   -5.221047|   -5.278176|   -8.259252|    1.418337|
|        8619|  7.3704e+00|   -5.001545|   -5.140694|   -5.774703|   -5.221219|   -5.278288|   -8.259917|    1.418446|
|        8620|  7.3704e+00|   -5.001793|   -5.140884|   -5.774827|   -5.221396|   -5.278404|   -8.260562|    1.418555|
|        8621|  7.3704e+00|   -5.002045|   -5.141080|   -5.774953|   -5.221578|   -5.278523|   -8.261187|    1.418665|
|        8622|  7.3703e+00|   -5.002301|   -5.141281|   -5.775080|   -5.221763|   -5.278646|   -8.261791|    1.418776|
|        8623|  7.3703e+00|   -5.002562|   -5.141487|   -5.775209|   -5.221954|   -5.278773|   -8.262374|    1.418887|
|        8624|  7.3702e+00|   -5.002827|   -5.141698|   -5.775340|   -5.222150|   -5.278905|   -8.262937|    1.418999|
|        8625|  7.3702e+00|   -5.003096|   -5.141912|   -5.775469|   -5.222350|   -5.279039|   -8.263477|    1.419111|
|        8626|  7.3701e+00|   -5.003369|   -5.142132|   -5.775600|   -5.222554|   -5.279177|   -8.263997|    1.419224|
|        8627|  7.3701e+00|   -5.003646|   -5.142356|   -5.775733|   -5.222763|   -5.279319|   -8.264494|    1.419337|
|        8628|  7.3700e+00|   -5.003927|   -5.142586|   -5.775866|   -5.222975|   -5.279464|   -8.264969|    1.419451|
|        8629|  7.3700e+00|   -5.004213|   -5.142820|   -5.776002|   -5.223193|   -5.279614|   -8.265423|    1.419566|
|        8630|  7.3700e+00|   -5.004504|   -5.143059|   -5.776140|   -5.223415|   -5.279769|   -8.265853|    1.419681|
|        8631|  7.3699e+00|   -5.004800|   -5.143304|   -5.776279|   -5.223642|   -5.279928|   -8.266261|    1.419797|
|        8632|  7.3699e+00|   -5.005100|   -5.143553|   -5.776421|   -5.223874|   -5.280091|   -8.266647|    1.419913|
|        8633|  7.3698e+00|   -5.005405|   -5.143807|   -5.776563|   -5.224111|   -5.280258|   -8.267009|    1.420030|
|        8634|  7.3698e+00|   -5.005714|   -5.144065|   -5.776708|   -5.224352|   -5.280429|   -8.267348|    1.420148|
|        8635|  7.3698e+00|   -5.006028|   -5.144328|   -5.776854|   -5.224597|   -5.280604|   -8.267664|    1.420266|
|        8636|  7.3697e+00|   -5.006346|   -5.144596|   -5.777001|   -5.224846|   -5.280783|   -8.267957|    1.420384|
|        8637|  7.3696e+00|   -5.006669|   -5.144869|   -5.777151|   -5.225100|   -5.280966|   -8.268226|    1.420503|
|        8638|  7.3696e+00|   -5.006997|   -5.145147|   -5.777303|   -5.225359|   -5.281153|   -8.268471|    1.420623|
|        8639|  7.3696e+00|   -5.007329|   -5.145430|   -5.777456|   -5.225622|   -5.281345|   -8.268693|    1.420744|
|        8640|  7.3695e+00|   -5.007666|   -5.145718|   -5.777612|   -5.225890|   -5.281542|   -8.268891|    1.420865|
|        8641|  7.3695e+00|   -5.008009|   -5.146012|   -5.777770|   -5.226162|   -5.281744|   -8.269065|    1.420986|
|        8642|  7.3694e+00|   -5.008357|   -5.146310|   -5.777930|   -5.226440|   -5.281950|   -8.269215|    1.421108|
|        8643|  7.3693e+00|   -5.008709|   -5.146613|   -5.778090|   -5.226721|   -5.282159|   -8.269341|    1.421231|
|        8644|  7.3693e+00|   -5.009065|   -5.146921|   -5.778254|   -5.227007|   -5.282374|   -8.269442|    1.421355|
|        8645|  7.3692e+00|   -5.009427|   -5.147234|   -5.778419|   -5.227297|   -5.282593|   -8.269519|    1.421479|
|        8646|  7.3692e+00|   -5.009794|   -5.147552|   -5.778586|   -5.227593|   -5.282816|   -8.269571|    1.421603|
|        8647|  7.3691e+00|   -5.010166|   -5.147876|   -5.778755|   -5.227893|   -5.283044|   -8.269600|    1.421728|
|        8648|  7.3691e+00|   -5.010542|   -5.148204|   -5.778926|   -5.228199|   -5.283277|   -8.269603|    1.421854|
|        8649|  7.3690e+00|   -5.010925|   -5.148539|   -5.779098|   -5.228510|   -5.283515|   -8.269583|    1.421980|
|        8650|  7.3690e+00|   -5.011313|   -5.148878|   -5.779273|   -5.228825|   -5.283758|   -8.269537|    1.422107|
|        8651|  7.3690e+00|   -5.011705|   -5.149223|   -5.779450|   -5.229146|   -5.284006|   -8.269468|    1.422235|
|        8652|  7.3689e+00|   -5.012103|   -5.149573|   -5.779629|   -5.229471|   -5.284258|   -8.269375|    1.422363|
|        8653|  7.3689e+00|   -5.012506|   -5.149928|   -5.779809|   -5.229802|   -5.284515|   -8.269258|    1.422491|
|        8654|  7.3689e+00|   -5.012914|   -5.150288|   -5.779992|   -5.230137|   -5.284776|   -8.269116|    1.422620|
|        8655|  7.3688e+00|   -5.013327|   -5.150654|   -5.780176|   -5.230477|   -5.285043|   -8.268950|    1.422750|
|        8656|  7.3688e+00|   -5.013745|   -5.151025|   -5.780362|   -5.230822|   -5.285313|   -8.268760|    1.422881|
|        8657|  7.3688e+00|   -5.014167|   -5.151401|   -5.780548|   -5.231172|   -5.285588|   -8.268545|    1.423011|
|        8658|  7.3687e+00|   -5.014595|   -5.151782|   -5.780736|   -5.231526|   -5.285868|   -8.268305|    1.423143|
|        8659|  7.3687e+00|   -5.015027|   -5.152169|   -5.780927|   -5.231886|   -5.286152|   -8.268042|    1.423275|
|        8660|  7.3686e+00|   -5.015464|   -5.152562|   -5.781120|   -5.232251|   -5.286441|   -8.267755|    1.423408|
|        8661|  7.3686e+00|   -5.015906|   -5.152960|   -5.781314|   -5.232621|   -5.286735|   -8.267443|    1.423541|
|        8662|  7.3686e+00|   -5.016353|   -5.153363|   -5.781509|   -5.232996|   -5.287033|   -8.267108|    1.423675|
|        8663|  7.3685e+00|   -5.016805|   -5.153772|   -5.781705|   -5.233376|   -5.287335|   -8.266750|    1.423809|
|        8664|  7.3685e+00|   -5.017262|   -5.154186|   -5.781903|   -5.233760|   -5.287643|   -8.266367|    1.423944|
|        8665|  7.3685e+00|   -5.017723|   -5.154604|   -5.782101|   -5.234149|   -5.287954|   -8.265962|    1.424079|
|        8666|  7.3684e+00|   -5.018188|   -5.155028|   -5.782300|   -5.234543|   -5.288270|   -8.265533|    1.424215|
|        8667|  7.3684e+00|   -5.018659|   -5.155458|   -5.782502|   -5.234941|   -5.288590|   -8.265081|    1.424351|
|        8668|  7.3684e+00|   -5.019135|   -5.155893|   -5.782705|   -5.235345|   -5.288915|   -8.264606|    1.424488|
|        8669|  7.3684e+00|   -5.019616|   -5.156333|   -5.782909|   -5.235753|   -5.289245|   -8.264109|    1.424626|
|        8670|  7.3684e+00|   -5.020102|   -5.156779|   -5.783116|   -5.236167|   -5.289580|   -8.263589|    1.424764|
|        8671|  7.3684e+00|   -5.020593|   -5.157231|   -5.783325|   -5.236586|   -5.289920|   -8.263047|    1.424902|
|        8672|  7.3683e+00|   -5.021090|   -5.157688|   -5.783536|   -5.237010|   -5.290265|   -8.262482|    1.425041|
|        8673|  7.3683e+00|   -5.021591|   -5.158150|   -5.783749|   -5.237439|   -5.290615|   -8.261896|    1.425181|
|        8674|  7.3683e+00|   -5.022098|   -5.158616|   -5.783963|   -5.237873|   -5.290969|   -8.261288|    1.425321|
|        8675|  7.3682e+00|   -5.022608|   -5.159087|   -5.784179|   -5.238310|   -5.291326|   -8.260658|    1.425461|
|        8676|  7.3682e+00|   -5.023123|   -5.159564|   -5.784395|   -5.238752|   -5.291688|   -8.260007|    1.425602|
|        8677|  7.3682e+00|   -5.023643|   -5.160046|   -5.784613|   -5.239199|   -5.292056|   -8.259335|    1.425744|
|        8678|  7.3681e+00|   -5.024169|   -5.160533|   -5.784831|   -5.239650|   -5.292427|   -8.258642|    1.425885|
|        8679|  7.3680e+00|   -5.024699|   -5.161025|   -5.785050|   -5.240106|   -5.292803|   -8.257929|    1.426028|
|        8680|  7.3680e+00|   -5.025234|   -5.161523|   -5.785270|   -5.240567|   -5.293184|   -8.257195|    1.426171|
|        8681|  7.3680e+00|   -5.025774|   -5.162027|   -5.785491|   -5.241034|   -5.293570|   -8.256441|    1.426314|
|        8682|  7.3679e+00|   -5.026320|   -5.162535|   -5.785713|   -5.241506|   -5.293961|   -8.255668|    1.426457|
|        8683|  7.3679e+00|   -5.026871|   -5.163049|   -5.785937|   -5.241982|   -5.294357|   -8.254875|    1.426602|
|        8684|  7.3678e+00|   -5.027427|   -5.163569|   -5.786162|   -5.242464|   -5.294758|   -8.254064|    1.426746|
|        8685|  7.3678e+00|   -5.027989|   -5.164094|   -5.786387|   -5.242952|   -5.295164|   -8.253233|    1.426891|
|        8686|  7.3678e+00|   -5.028557|   -5.164624|   -5.786613|   -5.243444|   -5.295575|   -8.252383|    1.427036|
|        8687|  7.3677e+00|   -5.029129|   -5.165160|   -5.786841|   -5.243942|   -5.295991|   -8.251516|    1.427182|
|        8688|  7.3677e+00|   -5.029707|   -5.165701|   -5.787069|   -5.244445|   -5.296412|   -8.250630|    1.427328|
|        8689|  7.3677e+00|   -5.030290|   -5.166248|   -5.787298|   -5.244952|   -5.296838|   -8.249726|    1.427475|
|        8690|  7.3676e+00|   -5.030877|   -5.166800|   -5.787527|   -5.245465|   -5.297267|   -8.248805|    1.427621|
|        8691|  7.3676e+00|   -5.031469|   -5.167358|   -5.787757|   -5.245983|   -5.297702|   -8.247867|    1.427769|
|        8692|  7.3675e+00|   -5.032066|   -5.167921|   -5.787987|   -5.246506|   -5.298141|   -8.246912|    1.427916|
|        8693|  7.3675e+00|   -5.032668|   -5.168489|   -5.788217|   -5.247034|   -5.298585|   -8.245941|    1.428064|
|        8694|  7.3675e+00|   -5.033274|   -5.169062|   -5.788446|   -5.247566|   -5.299032|   -8.244953|    1.428212|
|        8695|  7.3674e+00|   -5.033884|   -5.169640|   -5.788676|   -5.248103|   -5.299485|   -8.243950|    1.428361|
|        8696|  7.3674e+00|   -5.034497|   -5.170221|   -5.788906|   -5.248642|   -5.299939|   -8.242931|    1.428510|
|        8697|  7.3674e+00|   -5.035115|   -5.170807|   -5.789137|   -5.249187|   -5.300398|   -8.241896|    1.428659|
|        8698|  7.3673e+00|   -5.035738|   -5.171398|   -5.789368|   -5.249736|   -5.300862|   -8.240847|    1.428809|

scontrol show job 1203741
JobId=1203741 JobName=m6_aoa40
   UserId=anthonyy(3152141) GroupId=anthonyy(3152141) MCS_label=N/A
   Priority=492323 Nice=0 Account=rrg-jphickey QOS=normal
   JobState=COMPLETING Reason=TimeLimit Dependency=(null)
   Requeue=0 Restarts=0 BatchFlag=1 Reboot=0 ExitCode=0:15
   RunTime=18:00:16 TimeLimit=18:00:00 TimeMin=N/A
   SubmitTime=2026-03-20T02:35:59 EligibleTime=2026-03-20T02:35:59
   AccrueTime=2026-03-20T02:35:59
   StartTime=2026-03-20T09:14:48 EndTime=2026-03-21T03:15:04 Deadline=N/A
   SuspendTime=None SecsPreSuspend=0 LastSchedEval=2026-03-20T09:14:48 Scheduler=Main
   Partition=compute AllocNode:Sid=tri-login05:2426321
   ReqNodeList=(null) ExcNodeList=(null)
   NodeList=tri[0058-0059]
   BatchHost=tri0058
   NumNodes=2 NumCPUs=384 NumTasks=128 CPUs/Task=1 ReqB:S:C:T=0:0:*:*
   ReqTRES=cpu=128,mem=1534000M,node=2,billing=128
   AllocTRES=cpu=384,mem=1534000M,node=2,billing=384
   Socks/Node=* NtasksPerN:B:S:C=64:0:*:* CoreSpec=*
   MinCPUsNode=64 MinMemoryNode=0 MinTmpDiskNode=0
   Features=(null) DelayBoot=00:00:00
   OverSubscribe=NO Contiguous=0 Licenses=(null) Network=(null)
   Command=/scratch/anthonyy/reentry/orion/config/run.sh
   WorkDir=/scratch/anthonyy/reentry/orion/cases/m6_aoa40
   Comment=/opt/slurm/bin/sbatch --export=NONE --get-user-env=L --job-name m6_aoa40 --nodes 2 --ntasks-per-node 64 --cpus-per-task 1 --mem 0 --time 18:00:00 --account rrg-jphickey --output orion_%j.out --error orion_%j.err --chdir /scratch/anthonyy/reentry/orion/cases/m6_aoa40 /scratch/anthonyy/reentry/orion/config/run.sh /scratch/anthonyy/reentry/orion/config/generated/m6_aoa40.cfg 
   StdErr=/scratch/anthonyy/reentry/orion/cases/m6_aoa40/orion_1203741.err
   StdIn=/dev/null
   StdOut=/scratch/anthonyy/reentry/orion/cases/m6_aoa40/orion_1203741.out
   TresPerTask=cpu=1
   

sacct -j 1203741
JobID           JobName    Account    Elapsed  MaxVMSize     MaxRSS  SystemCPU    UserCPU ExitCode 
------------ ---------- ---------- ---------- ---------- ---------- ---------- ---------- -------- 
1203741        m6_aoa40 rrg-jphic+   18:00:16                         13:20:24 94-14:23:+      0:0 
1203741.bat+      batch rrg-jphic+   18:00:18          0      9648K  00:00.155  00:00.593     0:15 
1203741.ext+     extern rrg-jphic+   18:00:16                         00:00:00   00:00:00      0:0 
1203741.0       SU2_CFD rrg-jphic+   18:00:14          0  10695956K   13:20:24 94-14:23:+     0:15 

