Nodes:  tri[0137,0337]
Tasks:  128
NPN:    64
Config: /scratch/anthonyy/reentry/orion/config/generated/m6_aoa40.cfg

-------------------------------------------------------------------------
|    ___ _   _ ___                                                      |
|   / __| | | |_  )   Release 7.5.1 "Blackbird"                         |
|   \__ \ |_| |/ /                                                      |
|   |___/\___//___|   Suite (Computational Fluid Dynamics Code)         |
|                                                                       |
-------------------------------------------------------------------------
| SU2 Project Website: https://su2code.github.io                        |
|                                                                       |
| The SU2 Project is maintained by the SU2 Foundation                   |
| (http://su2foundation.org)                                            |
-------------------------------------------------------------------------
| Copyright 2012-2023, SU2 Contributors                                 |
|                                                                       |
| SU2 is free software; you can redistribute it and/or                  |
| modify it under the terms of the GNU Lesser General Public            |
| License as published by the Free Software Foundation; either          |
| version 2.1 of the License, or (at your option) any later version.    |
|                                                                       |
| SU2 is distributed in the hope that it will be useful,                |
| but WITHOUT ANY WARRANTY; without even the implied warranty of        |
| MERCHANTABILITY or FITNESS FOR A PARTICULAR PURPOSE. See the GNU      |
| Lesser General Public License for more details.                       |
|                                                                       |
| You should have received a copy of the GNU Lesser General Public      |
| License along with SU2. If not, see <http://www.gnu.org/licenses/>.   |
-------------------------------------------------------------------------

Parsing config file for zone 0

----------------- Physical Case Definition ( Zone 0 ) -------------------
Compressible RANS equations.
Turbulence model: Spalart-Allmaras-noft2
Hybrid RANS/LES: No Hybrid RANS/LES
Mach number: 6.
Angle of attack (AoA): 40 deg, and angle of sideslip (AoS): 0 deg.
Reynolds number: 6.86229e+08. Reference length 5.
Reading and writing binary SU2 native restart files.
Read flow solution from: restart_flow.dat.
Non-Dimensional simulation (V=1.0, Rho=1.0, T=1.0 at the farfield).
The reference area will be computed using y(2D) or z(3D) projection.
The semi-span will be computed using the max y(3D) value.
The reference length is 0.64607 m.
Reference origin for moment evaluation is (0.25, 0, 0).
Surface(s) where the force coefficients are evaluated: ORION_SURFACE.

Input mesh file name: ../../mesh/fine.su2

--------------- Space Numerical Integration ( Zone 0 ) ------------------
Jameson-Schmidt-Turkel scheme (2nd order in space) for the flow inviscid terms.
JST viscous coefficients (2nd & 4th): 0.5, 0.02.
The method includes a grid stretching correction (p = 0.3).
Scalar upwind solver for the turbulence model.
First order integration in space.
Average of gradients with correction (viscous flow terms).
Average of gradients with correction (viscous turbulence terms).
Gradient for upwind reconstruction: Green-Gauss.
Gradient for viscous and source terms: Green-Gauss.

--------------- Time Numerical Integration  ( Zone 0 ) ------------------
Local time stepping (steady state simulation).
Euler implicit method for the flow equations.
FGMRES is used for solving the linear system.
Using a ILU(0) preconditioning.
Convergence criteria of the linear solver: 1e-06.
Max number of linear iterations: 100.
CFL adaptation. Factor down: 0.5, factor up: 1.1,
                lower limit: 0.05, upper limit: 0.5,
                acceptable linear residual: 0.001.
Courant-Friedrichs-Lewy number:     0.03
Euler implicit time integration for the turbulence model.

------------------ Convergence Criteria  ( Zone 0 ) ---------------------
Maximum number of solver subiterations: 999999.
Begin convergence monitoring at iteration 5.
Residual minimum value: 1e-8.
Cauchy series min. value: 1e-10.
Number of Cauchy elements: 100.
Begin windowed time average at iteration 0.

-------------------- Output Information ( Zone 0 ) ----------------------
File writing frequency: 
+------------------------------------+
|                     File| Frequency|
+------------------------------------+
|                  RESTART|       150|
|                 PARAVIEW|       150|
|         SURFACE_PARAVIEW|       150|
+------------------------------------+
Writing the convergence history file every 1 inner iterations.
Writing the screen convergence history every 1 inner iterations.
The tabular file format is CSV (.csv).
Convergence history file name: history.
Forces breakdown file name: forces_breakdown.dat.
Surface file name: surface_flow.
Volume file name: flow.
Restart file name: restart_flow.

------------- Config File Boundary Information ( Zone 0 ) ---------------
+-----------------------------------------------------------------------+
|                        Marker Type|                        Marker Name|
+-----------------------------------------------------------------------+
|                          Far-field|                           FARFIELD|
+-----------------------------------------------------------------------+
|                     Heat flux wall|                      ORION_SURFACE|
+-----------------------------------------------------------------------+

-------------------- Output Preprocessing ( Zone 0 ) --------------------

WARNING: SURFACE_PRESSURE_DROP can only be computed for at least 2 surfaces (outlet, inlet, ...)

Screen output fields: INNER_ITER, WALL_TIME, RMS_DENSITY, RMS_MOMENTUM-X, RMS_MOMENTUM-Y, RMS_MOMENTUM-Z, RMS_ENERGY, RMS_NU_TILDE, DRAG
History output group(s): ITER, RMS_RES
Convergence field(s): RMS_DENSITY
Warning: No (valid) fields chosen for time convergence monitoring. Time convergence monitoring inactive.
Volume output fields: MACH, PRESSURE, TEMPERATURE, DENSITY, HEAT_FLUX, Y_PLUS, COORDINATES, SOLUTION

------------------- Geometry Preprocessing ( Zone 0 ) -------------------
Three dimensional problem.
62211324 grid points before partitioning.
190879888 volume elements before partitioning.
2 surface markers.
4104 boundary elements in index 0 (Marker = FARFIELD).
1824836 boundary elements in index 1 (Marker = ORION_SURFACE).
Executing the partitioning functions.
Building the graph adjacency structure.
Calling ParMETIS... graph partitioning complete (4959327 edge cuts).
Distributing ParMETIS coloring.
Rebalancing vertices.
Rebalancing volume element connectivity.
Rebalancing markers and surface elements.
66952290 vertices including ghost points. 
197997438 interior elements including halo cells. 
103171259 tetrahedra.
94500655 prisms.
325524 pyramids.
Establishing MPI communication patterns.
Setting point connectivity.
Renumbering points (Reverse Cuthill McKee Ordering).
Recomputing point connectivity.
Setting element connectivity.
Checking the numerical grid orientation.
All volume elements are correctly orientend.
All surface elements are correctly orientend.
Identifying edges and vertices.
Setting the control volume structure.
Volume of the computational grid: 535693.
Searching for the closest normal neighbors to the surfaces.
Storing a mapping from global to local point index.
Compute the surface curvature.
Max K: 132.896. Mean K: 3.9104. Standard deviation K: 7.49569.
Checking for periodicity.
Computing mesh quality statistics for the dual control volumes.
+--------------------------------------------------------------+
|           Mesh Quality Metric|        Minimum|        Maximum|
+--------------------------------------------------------------+
|    Orthogonality Angle (deg.)|        53.0661|             90|
|     CV Face Area Aspect Ratio|        1.01143|        75298.5|
|           CV Sub-Volume Ratio|        1.00029|        45.0258|
+--------------------------------------------------------------+
Finding max control volume width.
Communicating number of neighbors.
Reference area = 11.531 m^2.
Semi-span length = 2.49999 m.
Wetted area = 57.9072 m^2.
Area projection in the x-plane = 19.6343 m^2, y-plane = 11.531 m^2, z-plane = 11.531 m^2.
Max. coordinate in the x-direction = 2.575 m, y-direction = 2.49999 m, z-direction = 2.49999 m.
Min. coordinate in the x-direction = -0.71 m, y-direction = -2.49999 m, z-direction = -2.5 m.
Computing wall distances.

-------------------- Solver Preprocessing ( Zone 0 ) --------------------
Viscous flow: Computing pressure using the ideal gas law
based on the free-stream temperature and a density computed
from the Reynolds number.
Force coefficients computed using free-stream values.

-- Models:
+------------------------------------------------------------------------------+
|          Viscosity Model|        Conductivity Model|              Fluid Model|
+------------------------------------------------------------------------------+
|               SUTHERLAND|          CONSTANT_PRANDTL|             STANDARD_AIR|
+------------------------------------------------------------------------------+
-- Fluid properties:
+------------------------------------------------------------------------------+
|                  Name|    Dim. value|    Ref. value|      Unit|Non-dim. value|
+------------------------------------------------------------------------------+
|        Ref. Viscosity|     1.716e-05|       2455.73|   N.s/m^2|   6.98773e-09|
|      Sutherland Temp.|        273.15|        288.15|         K|      0.947944|
|     Sutherland Const.|         110.4|        288.15|         K|      0.383134|
+------------------------------------------------------------------------------+
|        Prandtl (Lam.)|             -|             -|         -|          0.72|
|       Prandtl (Turb.)|             -|             -|         -|           0.9|
+------------------------------------------------------------------------------+
|          Gas Constant|       287.058|       14467.7|  N.m/kg.K|     0.0198413|
|      Spec. Heat Ratio|             -|             -|         -|           1.4|
+------------------------------------------------------------------------------+
-- Initial and free-stream conditions:
+------------------------------------------------------------------------------+
|                  Name|    Dim. value|    Ref. value|      Unit|Non-dim. value|
+------------------------------------------------------------------------------+
|       Static Pressure|       99485.6|   5.01407e+06|        Pa|     0.0198413|
|               Density|       1.20274|       1.20274|    kg/m^3|             1|
|           Temperature|        288.15|        288.15|         K|             1|
|          Total Energy|   2.29123e+06|   4.16887e+06|   m^2/s^2|      0.549603|
|            Velocity-X|        1564.1|       2041.78|       m/s|      0.766044|
|            Velocity-Y|             0|       2041.78|       m/s|             0|
|            Velocity-Z|       1312.43|       2041.78|       m/s|      0.642788|
|    Velocity Magnitude|       2041.78|       2041.78|       m/s|             1|
+------------------------------------------------------------------------------+
|             Viscosity|    1.7893e-05|       2455.73|   N.s/m^2|    7.2862e-09|
|          Conductivity|             -|   3.55289e+07|   W/m^2.K|             -|
|     Turb. Kin. Energy|       15633.3|   4.16887e+06|   m^2/s^2|       0.00375|
|     Spec. Dissipation|   1.05085e+08|       2041.78|       1/s|       51467.1|
+------------------------------------------------------------------------------+
|           Mach Number|             -|             -|         -|             6|
|       Reynolds Number|             -|             -|         -|   6.86229e+08|
+------------------------------------------------------------------------------+
Initialize Jacobian structure (Navier-Stokes). MG level: 0.
Initialize Jacobian structure (SA model).

------------------- Numerics Preprocessing ( Zone 0 ) -------------------

----------------- Integration Preprocessing ( Zone 0 ) ------------------

------------------- Iteration Preprocessing ( Zone 0 ) ------------------
Euler/Navier-Stokes/RANS fluid iteration.

------------------------------ Begin Solver -----------------------------

Simulation Run using the Single-zone Driver
WARNING: SU2 was not compiled for an AVX-capable architecture. Performance could be better,
         see https://su2code.github.io/docs_v7/Build-SU2-Linux-MacOS/#compiler-optimizations
+--------------------------------------------------------------------------------------------------------------------+
|  Inner_Iter|   Time(sec)|    rms[Rho]|   rms[RhoU]|   rms[RhoV]|   rms[RhoW]|   rms[RhoE]|     rms[nu]|          CD|
+--------------------------------------------------------------------------------------------------------------------+
|           0|  6.1991e+00|   -5.294861|   -5.440428|   -5.983080|   -5.515112|   -5.558791|   -8.219402|    1.456003|
|           1|  5.4623e+00|   -5.294920|   -5.440479|   -5.983144|   -5.515167|   -5.558861|   -8.219315|    1.455994|
|           2|  5.1356e+00|   -5.295015|   -5.440563|   -5.983243|   -5.515257|   -5.558973|   -8.219291|    1.455985|
|           3|  4.9563e+00|   -5.295120|   -5.440655|   -5.983351|   -5.515356|   -5.559095|   -8.219264|    1.455975|
|           4|  4.8460e+00|   -5.295234|   -5.440756|   -5.983466|   -5.515463|   -5.559227|   -8.219234|    1.455963|
|           5|  4.7727e+00|   -5.295358|   -5.440867|   -5.983590|   -5.515582|   -5.559372|   -8.219201|    1.455951|
|           6|  4.7227e+00|   -5.295495|   -5.440989|   -5.983722|   -5.515711|   -5.559530|   -8.219164|    1.455938|
|           7|  4.6873e+00|   -5.295643|   -5.441123|   -5.983863|   -5.515852|   -5.559701|   -8.219124|    1.455923|
|           8|  4.6600e+00|   -5.295806|   -5.441270|   -5.984012|   -5.516007|   -5.559886|   -8.219079|    1.455906|
|           9|  4.6326e+00|   -5.295982|   -5.441431|   -5.984170|   -5.516175|   -5.560088|   -8.219029|    1.455888|
|          10|  4.6063e+00|   -5.296175|   -5.441607|   -5.984336|   -5.516359|   -5.560305|   -8.218974|    1.455868|
|          11|  4.6215e+00|   -5.296384|   -5.441801|   -5.984510|   -5.516560|   -5.560541|   -8.218913|    1.455846|
|          12|  4.6312e+00|   -5.296612|   -5.442013|   -5.984691|   -5.516778|   -5.560795|   -8.218845|    1.455822|
|          13|  4.6439e+00|   -5.296859|   -5.442245|   -5.984878|   -5.517016|   -5.561069|   -8.218769|    1.455795|
|          14|  4.6549e+00|   -5.297127|   -5.442498|   -5.985070|   -5.517274|   -5.561363|   -8.218685|    1.455766|
|          15|  4.6724e+00|   -5.297417|   -5.442776|   -5.985266|   -5.517554|   -5.561678|   -8.218591|    1.455734|
|          16|  4.6844e+00|   -5.297731|   -5.443078|   -5.985463|   -5.517858|   -5.562015|   -8.218487|    1.455698|
|          17|  4.6952e+00|   -5.298069|   -5.443407|   -5.985657|   -5.518186|   -5.562374|   -8.218370|    1.455659|
|          18|  4.7021e+00|   -5.298433|   -5.443766|   -5.985847|   -5.518540|   -5.562755|   -8.218241|    1.455615|
|          19|  4.7115e+00|   -5.298824|   -5.444155|   -5.986027|   -5.518921|   -5.563157|   -8.218096|    1.455568|
|          20|  4.7189e+00|   -5.299242|   -5.444576|   -5.986193|   -5.519330|   -5.563580|   -8.217934|    1.455515|
|          21|  4.7489e+00|   -5.299687|   -5.445031|   -5.986340|   -5.519766|   -5.564020|   -8.217753|    1.455457|
|          22|  4.7756e+00|   -5.300160|   -5.445521|   -5.986460|   -5.520230|   -5.564477|   -8.217551|    1.455394|
|          23|  4.7973e+00|   -5.300659|   -5.446045|   -5.986547|   -5.520721|   -5.564944|   -8.217325|    1.455323|
|          24|  4.8171e+00|   -5.301182|   -5.446604|   -5.986591|   -5.521235|   -5.565415|   -8.217072|    1.455246|
|          25|  4.8380e+00|   -5.301725|   -5.447195|   -5.986582|   -5.521770|   -5.565883|   -8.216788|    1.455160|
|          26|  4.8555e+00|   -5.302283|   -5.447817|   -5.986510|   -5.522321|   -5.566337|   -8.216659|    1.455073|
|          27|  4.8741e+00|   -5.302840|   -5.448437|   -5.986437|   -5.522869|   -5.566782|   -8.216557|    1.454986|
|          28|  4.8920e+00|   -5.303392|   -5.449052|   -5.986379|   -5.523412|   -5.567221|   -8.216450|    1.454898|
|          29|  4.9067e+00|   -5.303940|   -5.449661|   -5.986334|   -5.523948|   -5.567652|   -8.216339|    1.454811|
|          30|  4.9188e+00|   -5.304482|   -5.450263|   -5.986300|   -5.524479|   -5.568077|   -8.216222|    1.454723|
|          31|  4.9321e+00|   -5.305020|   -5.450861|   -5.986277|   -5.525005|   -5.568495|   -8.216100|    1.454635|
|          32|  4.9481e+00|   -5.305556|   -5.451456|   -5.986268|   -5.525528|   -5.568911|   -8.215973|    1.454547|
|          33|  4.9621e+00|   -5.306088|   -5.452046|   -5.986268|   -5.526048|   -5.569321|   -8.215842|    1.454459|
|          34|  4.9744e+00|   -5.306615|   -5.452632|   -5.986276|   -5.526563|   -5.569727|   -8.215705|    1.454370|
|          35|  4.9861e+00|   -5.307138|   -5.453214|   -5.986292|   -5.527075|   -5.570128|   -8.215563|    1.454282|
|          36|  4.9961e+00|   -5.307659|   -5.453793|   -5.986315|   -5.527585|   -5.570526|   -8.215416|    1.454193|
|          37|  5.0050e+00|   -5.308176|   -5.454369|   -5.986346|   -5.528092|   -5.570921|   -8.215264|    1.454104|
|          38|  5.0126e+00|   -5.308692|   -5.454942|   -5.986383|   -5.528598|   -5.571315|   -8.215108|    1.454015|
|          39|  5.0213e+00|   -5.309204|   -5.455513|   -5.986425|   -5.529103|   -5.571706|   -8.214946|    1.453926|
|          40|  5.0300e+00|   -5.309716|   -5.456083|   -5.986475|   -5.529607|   -5.572097|   -8.214779|    1.453837|
|          41|  5.0372e+00|   -5.310226|   -5.456652|   -5.986530|   -5.530111|   -5.572487|   -8.214608|    1.453748|
|          42|  5.0453e+00|   -5.310735|   -5.457222|   -5.986591|   -5.530615|   -5.572878|   -8.214431|    1.453658|
|          43|  5.0504e+00|   -5.311244|   -5.457792|   -5.986658|   -5.531120|   -5.573269|   -8.214250|    1.453568|
|          44|  5.0561e+00|   -5.311754|   -5.458362|   -5.986731|   -5.531626|   -5.573663|   -8.214064|    1.453479|
|          45|  5.0615e+00|   -5.312267|   -5.458935|   -5.986811|   -5.532137|   -5.574062|   -8.213872|    1.453389|
|          46|  5.0671e+00|   -5.312782|   -5.459511|   -5.986897|   -5.532651|   -5.574464|   -8.213676|    1.453299|
|          47|  5.0733e+00|   -5.313298|   -5.460089|   -5.986986|   -5.533168|   -5.574869|   -8.213475|    1.453209|
|          48|  5.0791e+00|   -5.313816|   -5.460668|   -5.987080|   -5.533686|   -5.575277|   -8.213270|    1.453119|
|          49|  5.0837e+00|   -5.314335|   -5.461249|   -5.987176|   -5.534207|   -5.575687|   -8.213059|    1.453028|
|          50|  5.0885e+00|   -5.314857|   -5.461833|   -5.987277|   -5.534730|   -5.576102|   -8.212844|    1.452938|
|          51|  5.0933e+00|   -5.315380|   -5.462420|   -5.987380|   -5.535258|   -5.576520|   -8.212624|    1.452847|
|          52|  5.0977e+00|   -5.315906|   -5.463009|   -5.987485|   -5.535789|   -5.576943|   -8.212400|    1.452757|
|          53|  5.1032e+00|   -5.316436|   -5.463603|   -5.987594|   -5.536326|   -5.577372|   -8.212171|    1.452666|
|          54|  5.1092e+00|   -5.316970|   -5.464200|   -5.987706|   -5.536867|   -5.577806|   -8.211938|    1.452575|
|          55|  5.1150e+00|   -5.317507|   -5.464800|   -5.987821|   -5.537414|   -5.578246|   -8.211700|    1.452484|
|          56|  5.1201e+00|   -5.318047|   -5.465404|   -5.987938|   -5.537966|   -5.578690|   -8.211458|    1.452393|
|          57|  5.1238e+00|   -5.318591|   -5.466011|   -5.988057|   -5.538521|   -5.579139|   -8.211211|    1.452302|
|          58|  5.1275e+00|   -5.319138|   -5.466622|   -5.988177|   -5.539081|   -5.579593|   -8.210961|    1.452211|
|          59|  5.1320e+00|   -5.319688|   -5.467236|   -5.988299|   -5.539647|   -5.580052|   -8.210706|    1.452119|
|          60|  5.1347e+00|   -5.320243|   -5.467854|   -5.988422|   -5.540217|   -5.580517|   -8.210447|    1.452028|
|          61|  5.1382e+00|   -5.320801|   -5.468475|   -5.988547|   -5.540793|   -5.580987|   -8.210184|    1.451936|
|          62|  5.1428e+00|   -5.321363|   -5.469099|   -5.988673|   -5.541373|   -5.581462|   -8.209917|    1.451845|
|          63|  5.1458e+00|   -5.321927|   -5.469727|   -5.988800|   -5.541957|   -5.581941|   -8.209647|    1.451753|
|          64|  5.1491e+00|   -5.322495|   -5.470358|   -5.988927|   -5.542545|   -5.582425|   -8.209372|    1.451661|
|          65|  5.1521e+00|   -5.323067|   -5.470991|   -5.989059|   -5.543138|   -5.582913|   -8.209094|    1.451570|
|          66|  5.1543e+00|   -5.323642|   -5.471629|   -5.989190|   -5.543735|   -5.583407|   -8.208813|    1.451478|
|          67|  5.1570e+00|   -5.324222|   -5.472269|   -5.989323|   -5.544337|   -5.583906|   -8.208528|    1.451386|
|          68|  5.1596e+00|   -5.324803|   -5.472912|   -5.989455|   -5.544942|   -5.584409|   -8.208239|    1.451294|
|          69|  5.1637e+00|   -5.325387|   -5.473558|   -5.989585|   -5.545550|   -5.584913|   -8.207948|    1.451202|
|          70|  5.1661e+00|   -5.325972|   -5.474206|   -5.989715|   -5.546161|   -5.585422|   -8.207657|    1.451110|
|          71|  5.1704e+00|   -5.326562|   -5.474856|   -5.989849|   -5.546777|   -5.585934|   -8.207362|    1.451018|
|          72|  5.1733e+00|   -5.327155|   -5.475510|   -5.989985|   -5.547396|   -5.586452|   -8.207064|    1.450926|
|          73|  5.1755e+00|   -5.327750|   -5.476166|   -5.990120|   -5.548019|   -5.586973|   -8.206762|    1.450833|
|          74|  5.1776e+00|   -5.328348|   -5.476824|   -5.990253|   -5.548645|   -5.587497|   -8.206458|    1.450741|
|          75|  5.1803e+00|   -5.328948|   -5.477485|   -5.990386|   -5.549274|   -5.588024|   -8.206150|    1.450649|
|          76|  5.1828e+00|   -5.329551|   -5.478148|   -5.990519|   -5.549907|   -5.588554|   -8.205840|    1.450557|
|          77|  5.1846e+00|   -5.330154|   -5.478812|   -5.990649|   -5.550542|   -5.589087|   -8.205527|    1.450464|
|          78|  5.1868e+00|   -5.330760|   -5.479478|   -5.990777|   -5.551181|   -5.589622|   -8.205211|    1.450372|
|          79|  5.1883e+00|   -5.331367|   -5.480146|   -5.990905|   -5.551822|   -5.590160|   -8.204893|    1.450279|
|          80|  5.1898e+00|   -5.331975|   -5.480816|   -5.991031|   -5.552465|   -5.590700|   -8.204572|    1.450187|
|          81|  5.1914e+00|   -5.332585|   -5.481488|   -5.991157|   -5.553111|   -5.591242|   -8.204249|    1.450095|
|          82|  5.1929e+00|   -5.333195|   -5.482162|   -5.991282|   -5.553759|   -5.591786|   -8.203924|    1.450002|
|          83|  5.1947e+00|   -5.333806|   -5.482836|   -5.991404|   -5.554409|   -5.592331|   -8.203596|    1.449910|
|          84|  5.1969e+00|   -5.334418|   -5.483512|   -5.991525|   -5.555061|   -5.592878|   -8.203267|    1.449817|
|          85|  5.1982e+00|   -5.335030|   -5.484189|   -5.991645|   -5.555715|   -5.593427|   -8.202936|    1.449725|
|          86|  5.1997e+00|   -5.335642|   -5.484868|   -5.991763|   -5.556370|   -5.593977|   -8.202603|    1.449632|
|          87|  5.2010e+00|   -5.336255|   -5.485547|   -5.991879|   -5.557026|   -5.594528|   -8.202268|    1.449540|
|          88|  5.2019e+00|   -5.336867|   -5.486228|   -5.991994|   -5.557685|   -5.595081|   -8.201931|    1.449447|
|          89|  5.2022e+00|   -5.337480|   -5.486909|   -5.992108|   -5.558345|   -5.595635|   -8.201593|    1.449355|
|          90|  5.2042e+00|   -5.338092|   -5.487590|   -5.992221|   -5.559007|   -5.596190|   -8.201253|    1.449262|
|          91|  5.2058e+00|   -5.338705|   -5.488273|   -5.992336|   -5.559671|   -5.596747|   -8.200912|    1.449170|
|          92|  5.2066e+00|   -5.339318|   -5.488956|   -5.992451|   -5.560336|   -5.597304|   -8.200570|    1.449077|
|          93|  5.2088e+00|   -5.339930|   -5.489639|   -5.992564|   -5.561002|   -5.597863|   -8.200226|    1.448985|
|          94|  5.2104e+00|   -5.340541|   -5.490322|   -5.992676|   -5.561668|   -5.598422|   -8.199881|    1.448892|
|          95|  5.2112e+00|   -5.341150|   -5.491005|   -5.992787|   -5.562336|   -5.598981|   -8.199536|    1.448800|
|          96|  5.2117e+00|   -5.341760|   -5.491688|   -5.992896|   -5.563004|   -5.599541|   -8.199189|    1.448707|
|          97|  5.2132e+00|   -5.342367|   -5.492370|   -5.993004|   -5.563672|   -5.600101|   -8.198841|    1.448615|
|          98|  5.2146e+00|   -5.342973|   -5.493052|   -5.993112|   -5.564340|   -5.600661|   -8.198493|    1.448522|
|          99|  5.2159e+00|   -5.343578|   -5.493734|   -5.993219|   -5.565010|   -5.601221|   -8.198143|    1.448430|
|         100|  5.2165e+00|   -5.344182|   -5.494415|   -5.993324|   -5.565679|   -5.601781|   -8.197794|    1.448337|
|         101|  5.2178e+00|   -5.344784|   -5.495095|   -5.993429|   -5.566348|   -5.602341|   -8.197443|    1.448245|
|         102|  5.2194e+00|   -5.345385|   -5.495774|   -5.993534|   -5.567017|   -5.602902|   -8.197092|    1.448152|
|         103|  5.2204e+00|   -5.345983|   -5.496451|   -5.993636|   -5.567686|   -5.603461|   -8.196741|    1.448060|
|         104|  5.2208e+00|   -5.346579|   -5.497128|   -5.993737|   -5.568354|   -5.604020|   -8.196390|    1.447968|
|         105|  5.2213e+00|   -5.347173|   -5.497803|   -5.993837|   -5.569022|   -5.604578|   -8.196038|    1.447875|
|         106|  5.2218e+00|   -5.347764|   -5.498478|   -5.993936|   -5.569689|   -5.605135|   -8.195686|    1.447783|
|         107|  5.2231e+00|   -5.348353|   -5.499150|   -5.994034|   -5.570355|   -5.605691|   -8.195335|    1.447691|
|         108|  5.2242e+00|   -5.348938|   -5.499821|   -5.994129|   -5.571020|   -5.606245|   -8.194983|    1.447598|
|         109|  5.2248e+00|   -5.349521|   -5.500489|   -5.994223|   -5.571683|   -5.606798|   -8.194631|    1.447506|
|         110|  5.2259e+00|   -5.350101|   -5.501155|   -5.994317|   -5.572345|   -5.607350|   -8.194280|    1.447414|
|         111|  5.2268e+00|   -5.350677|   -5.501819|   -5.994411|   -5.573006|   -5.607900|   -8.193929|    1.447321|
|         112|  5.2275e+00|   -5.351252|   -5.502480|   -5.994505|   -5.573666|   -5.608450|   -8.193579|    1.447229|
|         113|  5.2290e+00|   -5.351823|   -5.503140|   -5.994598|   -5.574324|   -5.608998|   -8.193229|    1.447137|
|         114|  5.2301e+00|   -5.352391|   -5.503797|   -5.994688|   -5.574981|   -5.609545|   -8.192880|    1.447045|
|         115|  5.2305e+00|   -5.352957|   -5.504452|   -5.994778|   -5.575636|   -5.610090|   -8.192531|    1.446953|
|         116|  5.2311e+00|   -5.353520|   -5.505103|   -5.994869|   -5.576291|   -5.610635|   -8.192183|    1.446860|
|         117|  5.2323e+00|   -5.354079|   -5.505752|   -5.994957|   -5.576943|   -5.611177|   -8.191837|    1.446768|
|         118|  5.2328e+00|   -5.354635|   -5.506399|   -5.995046|   -5.577595|   -5.611719|   -8.191491|    1.446676|
|         119|  5.2337e+00|   -5.355190|   -5.507042|   -5.995135|   -5.578245|   -5.612259|   -8.191146|    1.446584|
|         120|  5.2343e+00|   -5.355741|   -5.507682|   -5.995222|   -5.578895|   -5.612798|   -8.190802|    1.446492|
|         121|  5.2356e+00|   -5.356289|   -5.508319|   -5.995306|   -5.579542|   -5.613335|   -8.190460|    1.446400|
|         122|  5.2362e+00|   -5.356832|   -5.508953|   -5.995387|   -5.580188|   -5.613870|   -8.190119|    1.446308|
|         123|  5.2370e+00|   -5.357371|   -5.509582|   -5.995465|   -5.580831|   -5.614402|   -8.189780|    1.446216|
|         124|  5.2379e+00|   -5.357907|   -5.510208|   -5.995542|   -5.581473|   -5.614932|   -8.189442|    1.446124|
|         125|  5.2387e+00|   -5.358437|   -5.510830|   -5.995616|   -5.582111|   -5.615458|   -8.189106|    1.446032|
|         126|  5.2393e+00|   -5.358963|   -5.511448|   -5.995689|   -5.582747|   -5.615982|   -8.188771|    1.445940|
|         127|  5.2399e+00|   -5.359485|   -5.512062|   -5.995760|   -5.583381|   -5.616503|   -8.188439|    1.445848|
|         128|  5.2414e+00|   -5.360002|   -5.512672|   -5.995829|   -5.584011|   -5.617022|   -8.188108|    1.445756|
|         129|  5.2421e+00|   -5.360515|   -5.513279|   -5.995898|   -5.584640|   -5.617538|   -8.187779|    1.445664|
|         130|  5.2428e+00|   -5.361024|   -5.513881|   -5.995965|   -5.585266|   -5.618052|   -8.187452|    1.445572|
|         131|  5.2432e+00|   -5.361528|   -5.514478|   -5.996030|   -5.585889|   -5.618564|   -8.187128|    1.445480|
|         132|  5.2444e+00|   -5.362028|   -5.515072|   -5.996094|   -5.586510|   -5.619072|   -8.186805|    1.445388|
|         133|  5.2449e+00|   -5.362523|   -5.515661|   -5.996158|   -5.587128|   -5.619578|   -8.186485|    1.445296|
|         134|  5.2451e+00|   -5.363014|   -5.516245|   -5.996221|   -5.587744|   -5.620082|   -8.186168|    1.445204|
|         135|  5.2453e+00|   -5.363499|   -5.516824|   -5.996282|   -5.588356|   -5.620582|   -8.185853|    1.445112|
|         136|  5.2459e+00|   -5.363980|   -5.517398|   -5.996342|   -5.588965|   -5.621080|   -8.185541|    1.445020|
|         137|  5.2469e+00|   -5.364457|   -5.517968|   -5.996400|   -5.589571|   -5.621575|   -8.185231|    1.444929|
|         138|  5.2474e+00|   -5.364928|   -5.518534|   -5.996458|   -5.590175|   -5.622067|   -8.184924|    1.444837|
|         139|  5.2482e+00|   -5.365396|   -5.519095|   -5.996514|   -5.590775|   -5.622556|   -8.184620|    1.444745|
|         140|  5.2485e+00|   -5.365859|   -5.519652|   -5.996570|   -5.591373|   -5.623043|   -8.184319|    1.444653|
|         141|  5.2486e+00|   -5.366319|   -5.520204|   -5.996624|   -5.591969|   -5.623529|   -8.184022|    1.444561|
|         142|  5.2489e+00|   -5.366775|   -5.520751|   -5.996678|   -5.592563|   -5.624012|   -8.183727|    1.444470|
|         143|  5.2489e+00|   -5.367225|   -5.521293|   -5.996730|   -5.593153|   -5.624492|   -8.183435|    1.444378|
|         144|  5.2498e+00|   -5.367670|   -5.521830|   -5.996780|   -5.593740|   -5.624968|   -8.183147|    1.444286|
|         145|  5.2506e+00|   -5.368109|   -5.522361|   -5.996828|   -5.594321|   -5.625441|   -8.182862|    1.444194|
|         146|  5.2513e+00|   -5.368541|   -5.522886|   -5.996874|   -5.594899|   -5.625909|   -8.182581|    1.444103|
|         147|  5.2519e+00|   -5.368968|   -5.523405|   -5.996918|   -5.595472|   -5.626373|   -8.182303|    1.444011|
|         148|  5.2524e+00|   -5.369389|   -5.523919|   -5.996961|   -5.596041|   -5.626835|   -8.182029|    1.443919|
|         149|  5.2531e+00|   -5.369806|   -5.524427|   -5.997004|   -5.596608|   -5.627294|   -8.181759|    1.443828|
|         150|  5.2538e+00|   -5.370218|   -5.524930|   -5.997046|   -5.597171|   -5.627749|   -8.181492|    1.443736|
+-----------------------------------------------------------------------+
|        File Writing Summary       |              Filename             |
+-----------------------------------------------------------------------+
|SU2 binary restart                 |restart_flow.dat                   |
|Paraview                           |flow.vtu                           |
|Paraview surface                   |surface_flow.vtu                   |
+-----------------------------------------------------------------------+
+--------------------------------------------------------------------------------------------------------------------+
|  Inner_Iter|   Time(sec)|    rms[Rho]|   rms[RhoU]|   rms[RhoV]|   rms[RhoW]|   rms[RhoE]|     rms[nu]|          CD|
+--------------------------------------------------------------------------------------------------------------------+
|         151|  5.3999e+00|   -5.370626|   -5.525427|   -5.997089|   -5.597731|   -5.628203|   -8.181230|    1.443644|
|         152|  5.4051e+00|   -5.371026|   -5.525918|   -5.997130|   -5.598285|   -5.628651|   -8.180971|    1.443553|
|         153|  5.4066e+00|   -5.371421|   -5.526403|   -5.997172|   -5.598835|   -5.629096|   -8.180717|    1.443461|
|         154|  5.4074e+00|   -5.371810|   -5.526883|   -5.997212|   -5.599380|   -5.629537|   -8.180466|    1.443369|
|         155|  5.4077e+00|   -5.372193|   -5.527356|   -5.997252|   -5.599922|   -5.629975|   -8.180220|    1.443278|
|         156|  5.4072e+00|   -5.372571|   -5.527823|   -5.997293|   -5.600459|   -5.630410|   -8.179978|    1.443186|
|         157|  5.4068e+00|   -5.372943|   -5.528284|   -5.997331|   -5.600991|   -5.630840|   -8.179741|    1.443095|
|         158|  5.4068e+00|   -5.373308|   -5.528738|   -5.997366|   -5.601518|   -5.631265|   -8.179508|    1.443003|
|         159|  5.4067e+00|   -5.373666|   -5.529186|   -5.997400|   -5.602040|   -5.631686|   -8.179280|    1.442912|
|         160|  5.4069e+00|   -5.374019|   -5.529628|   -5.997436|   -5.602557|   -5.632104|   -8.179056|    1.442821|
|         161|  5.4065e+00|   -5.374366|   -5.530063|   -5.997469|   -5.603069|   -5.632518|   -8.178837|    1.442729|
|         162|  5.4065e+00|   -5.374706|   -5.530491|   -5.997499|   -5.603576|   -5.632927|   -8.178623|    1.442638|
|         163|  5.4063e+00|   -5.375039|   -5.530913|   -5.997527|   -5.604078|   -5.633331|   -8.178414|    1.442547|
|         164|  5.4058e+00|   -5.375366|   -5.531328|   -5.997551|   -5.604574|   -5.633731|   -8.178209|    1.442456|
|         165|  5.4055e+00|   -5.375686|   -5.531735|   -5.997572|   -5.605066|   -5.634127|   -8.178010|    1.442364|
|         166|  5.4050e+00|   -5.376000|   -5.532136|   -5.997591|   -5.605553|   -5.634518|   -8.177816|    1.442273|
|         167|  5.4046e+00|   -5.376308|   -5.532530|   -5.997607|   -5.606035|   -5.634906|   -8.177628|    1.442182|
|         168|  5.4039e+00|   -5.376609|   -5.532917|   -5.997619|   -5.606510|   -5.635288|   -8.177444|    1.442091|
|         169|  5.4032e+00|   -5.376903|   -5.533297|   -5.997629|   -5.606981|   -5.635666|   -8.177266|    1.442000|
|         170|  5.4026e+00|   -5.377190|   -5.533669|   -5.997637|   -5.607445|   -5.636038|   -8.177094|    1.441909|
|         171|  5.4020e+00|   -5.377468|   -5.534033|   -5.997641|   -5.607903|   -5.636404|   -8.176927|    1.441818|
|         172|  5.4017e+00|   -5.377740|   -5.534389|   -5.997641|   -5.608354|   -5.636765|   -8.176766|    1.441728|
|         173|  5.4012e+00|   -5.378003|   -5.534737|   -5.997637|   -5.608798|   -5.637120|   -8.176610|    1.441637|
|         174|  5.4003e+00|   -5.378257|   -5.535076|   -5.997630|   -5.609235|   -5.637469|   -8.176460|    1.441546|
|         175|  5.4001e+00|   -5.378505|   -5.535408|   -5.997621|   -5.609666|   -5.637812|   -8.176316|    1.441456|
|         176|  5.3997e+00|   -5.378743|   -5.535732|   -5.997607|   -5.610089|   -5.638148|   -8.176178|    1.441365|
|         177|  5.3995e+00|   -5.378972|   -5.536047|   -5.997589|   -5.610505|   -5.638478|   -8.176046|    1.441275|
|         178|  5.3992e+00|   -5.379193|   -5.536354|   -5.997566|   -5.610913|   -5.638801|   -8.175920|    1.441184|
|         179|  5.3989e+00|   -5.379405|   -5.536652|   -5.997540|   -5.611313|   -5.639118|   -8.175800|    1.441094|
|         180|  5.3985e+00|   -5.379610|   -5.536943|   -5.997512|   -5.611706|   -5.639429|   -8.175686|    1.441004|
|         181|  5.3982e+00|   -5.379807|   -5.537226|   -5.997482|   -5.612092|   -5.639735|   -8.175579|    1.440914|
|         182|  5.3979e+00|   -5.379996|   -5.537501|   -5.997449|   -5.612470|   -5.640035|   -8.175478|    1.440824|
|         183|  5.3977e+00|   -5.380177|   -5.537767|   -5.997412|   -5.612842|   -5.640329|   -8.175383|    1.440734|
|         184|  5.3973e+00|   -5.380351|   -5.538024|   -5.997372|   -5.613208|   -5.640618|   -8.175295|    1.440644|
|         185|  5.3975e+00|   -5.380517|   -5.538273|   -5.997330|   -5.613567|   -5.640901|   -8.175213|    1.440554|
|         186|  5.3977e+00|   -5.380674|   -5.538514|   -5.997284|   -5.613918|   -5.641178|   -8.175138|    1.440465|
|         187|  5.3982e+00|   -5.380821|   -5.538745|   -5.997233|   -5.614260|   -5.641447|   -8.175070|    1.440375|
|         188|  5.3979e+00|   -5.380959|   -5.538967|   -5.997178|   -5.614594|   -5.641708|   -8.175008|    1.440286|
|         189|  5.3975e+00|   -5.381088|   -5.539179|   -5.997119|   -5.614919|   -5.641963|   -8.174953|    1.440197|
|         190|  5.3969e+00|   -5.381208|   -5.539383|   -5.997057|   -5.615236|   -5.642212|   -8.174905|    1.440107|
|         191|  5.3965e+00|   -5.381319|   -5.539578|   -5.996994|   -5.615544|   -5.642453|   -8.174865|    1.440018|
|         192|  5.3961e+00|   -5.381421|   -5.539763|   -5.996930|   -5.615843|   -5.642687|   -8.174831|    1.439930|
|         193|  5.3957e+00|   -5.381515|   -5.539938|   -5.996864|   -5.616134|   -5.642915|   -8.174804|    1.439841|
|         194|  5.3953e+00|   -5.381601|   -5.540105|   -5.996798|   -5.616417|   -5.643137|   -8.174785|    1.439752|
|         195|  5.3949e+00|   -5.381678|   -5.540263|   -5.996729|   -5.616692|   -5.643354|   -8.174772|    1.439664|
|         196|  5.3949e+00|   -5.381747|   -5.540411|   -5.996656|   -5.616958|   -5.643563|   -8.174767|    1.439575|
|         197|  5.3944e+00|   -5.381806|   -5.540549|   -5.996578|   -5.617215|   -5.643764|   -8.174770|    1.439487|
|         198|  5.3943e+00|   -5.381856|   -5.540679|   -5.996498|   -5.617464|   -5.643959|   -8.174779|    1.439399|
|         199|  5.3938e+00|   -5.381899|   -5.540800|   -5.996415|   -5.617705|   -5.644149|   -8.174796|    1.439311|
|         200|  5.3934e+00|   -5.381935|   -5.540912|   -5.996330|   -5.617939|   -5.644333|   -8.174820|    1.439223|
|         201|  5.3929e+00|   -5.381962|   -5.541015|   -5.996243|   -5.618165|   -5.644510|   -8.174852|    1.439135|
|         202|  5.3924e+00|   -5.381980|   -5.541108|   -5.996153|   -5.618382|   -5.644681|   -8.174892|    1.439048|
|         203|  5.3922e+00|   -5.381989|   -5.541191|   -5.996061|   -5.618589|   -5.644844|   -8.174938|    1.438960|
|         204|  5.3919e+00|   -5.381989|   -5.541265|   -5.995967|   -5.618788|   -5.644999|   -8.174993|    1.438873|
|         205|  5.3914e+00|   -5.381980|   -5.541328|   -5.995869|   -5.618978|   -5.645148|   -8.175055|    1.438786|
|         206|  5.3912e+00|   -5.381963|   -5.541382|   -5.995769|   -5.619160|   -5.645290|   -8.175126|    1.438699|
|         207|  5.3910e+00|   -5.381936|   -5.541426|   -5.995665|   -5.619332|   -5.645424|   -8.175204|    1.438612|
|         208|  5.3904e+00|   -5.381900|   -5.541460|   -5.995561|   -5.619495|   -5.645551|   -8.175289|    1.438525|
|         209|  5.3905e+00|   -5.381854|   -5.541484|   -5.995454|   -5.619648|   -5.645670|   -8.175383|    1.438439|
|         210|  5.3900e+00|   -5.381799|   -5.541498|   -5.995344|   -5.619791|   -5.645782|   -8.175485|    1.438353|
|         211|  5.3895e+00|   -5.381735|   -5.541502|   -5.995231|   -5.619924|   -5.645885|   -8.175595|    1.438266|
|         212|  5.3894e+00|   -5.381661|   -5.541495|   -5.995114|   -5.620046|   -5.645980|   -8.175713|    1.438180|
|         213|  5.3894e+00|   -5.381577|   -5.541478|   -5.994993|   -5.620159|   -5.646067|   -8.175839|    1.438095|
|         214|  5.3894e+00|   -5.381485|   -5.541451|   -5.994872|   -5.620263|   -5.646147|   -8.175973|    1.438009|
|         215|  5.3892e+00|   -5.381384|   -5.541414|   -5.994749|   -5.620358|   -5.646221|   -8.176116|    1.437923|
|         216|  5.3889e+00|   -5.381275|   -5.541366|   -5.994623|   -5.620443|   -5.646286|   -8.176267|    1.437838|
|         217|  5.3889e+00|   -5.381155|   -5.541307|   -5.994494|   -5.620517|   -5.646343|   -8.176426|    1.437753|
|         218|  5.3886e+00|   -5.381025|   -5.541237|   -5.994360|   -5.620580|   -5.646391|   -8.176594|    1.437668|
|         219|  5.3883e+00|   -5.380886|   -5.541155|   -5.994224|   -5.620634|   -5.646430|   -8.176771|    1.437583|
|         220|  5.3882e+00|   -5.380737|   -5.541063|   -5.994086|   -5.620678|   -5.646462|   -8.176957|    1.437498|
|         221|  5.3883e+00|   -5.380579|   -5.540961|   -5.993944|   -5.620711|   -5.646485|   -8.177151|    1.437414|
|         222|  5.3883e+00|   -5.380412|   -5.540849|   -5.993799|   -5.620734|   -5.646499|   -8.177354|    1.437329|
|         223|  5.3881e+00|   -5.380235|   -5.540727|   -5.993651|   -5.620746|   -5.646506|   -8.177565|    1.437245|
|         224|  5.3876e+00|   -5.380049|   -5.540593|   -5.993502|   -5.620748|   -5.646504|   -8.177786|    1.437161|
|         225|  5.3876e+00|   -5.379853|   -5.540449|   -5.993348|   -5.620738|   -5.646493|   -8.178015|    1.437077|
|         226|  5.3876e+00|   -5.379647|   -5.540294|   -5.993189|   -5.620719|   -5.646474|   -8.178254|    1.436994|
|         227|  5.3876e+00|   -5.379432|   -5.540129|   -5.993026|   -5.620689|   -5.646446|   -8.178502|    1.436910|
|         228|  5.3875e+00|   -5.379208|   -5.539954|   -5.992860|   -5.620648|   -5.646410|   -8.178758|    1.436827|
|         229|  5.3872e+00|   -5.378974|   -5.539769|   -5.992692|   -5.620598|   -5.646366|   -8.179024|    1.436744|
|         230|  5.3871e+00|   -5.378731|   -5.539575|   -5.992520|   -5.620537|   -5.646313|   -8.179300|    1.436661|
|         231|  5.3869e+00|   -5.378478|   -5.539370|   -5.992344|   -5.620466|   -5.646252|   -8.179584|    1.436578|
|         232|  5.3867e+00|   -5.378217|   -5.539155|   -5.992166|   -5.620384|   -5.646183|   -8.179878|    1.436496|
|         233|  5.3867e+00|   -5.377947|   -5.538930|   -5.991986|   -5.620293|   -5.646107|   -8.180181|    1.436413|
|         234|  5.3867e+00|   -5.377668|   -5.538695|   -5.991800|   -5.620190|   -5.646022|   -8.180494|    1.436331|
|         235|  5.3869e+00|   -5.377380|   -5.538449|   -5.991610|   -5.620077|   -5.645928|   -8.180816|    1.436249|
|         236|  5.3865e+00|   -5.377084|   -5.538194|   -5.991418|   -5.619955|   -5.645827|   -8.181148|    1.436167|
|         237|  5.3864e+00|   -5.376780|   -5.537929|   -5.991223|   -5.619824|   -5.645720|   -8.181490|    1.436086|
|         238|  5.3861e+00|   -5.376466|   -5.537653|   -5.991023|   -5.619681|   -5.645603|   -8.181841|    1.436004|
|         239|  5.3858e+00|   -5.376143|   -5.537368|   -5.990819|   -5.619528|   -5.645477|   -8.182202|    1.435923|
|         240|  5.3858e+00|   -5.375811|   -5.537072|   -5.990611|   -5.619363|   -5.645343|   -8.182573|    1.435842|
|         241|  5.3856e+00|   -5.375471|   -5.536767|   -5.990403|   -5.619190|   -5.645201|   -8.182953|    1.435761|
|         242|  5.3856e+00|   -5.375123|   -5.536452|   -5.990192|   -5.619006|   -5.645051|   -8.183344|    1.435680|
|         243|  5.3854e+00|   -5.374765|   -5.536127|   -5.989979|   -5.618812|   -5.644893|   -8.183744|    1.435599|
|         244|  5.3851e+00|   -5.374399|   -5.535792|   -5.989762|   -5.618608|   -5.644727|   -8.184154|    1.435519|
|         245|  5.3849e+00|   -5.374026|   -5.535447|   -5.989545|   -5.618394|   -5.644554|   -8.184575|    1.435439|
|         246|  5.3848e+00|   -5.373644|   -5.535093|   -5.989326|   -5.618170|   -5.644373|   -8.185005|    1.435359|
|         247|  5.3845e+00|   -5.373254|   -5.534729|   -5.989102|   -5.617935|   -5.644184|   -8.185446|    1.435279|
|         248|  5.3845e+00|   -5.372856|   -5.534355|   -5.988876|   -5.617691|   -5.643986|   -8.185896|    1.435200|
|         249|  5.3840e+00|   -5.372449|   -5.533971|   -5.988645|   -5.617436|   -5.643780|   -8.186357|    1.435120|
|         250|  5.3843e+00|   -5.372033|   -5.533578|   -5.988411|   -5.617171|   -5.643566|   -8.186831|    1.435041|
|         251|  5.3841e+00|   -5.371609|   -5.533175|   -5.988174|   -5.616895|   -5.643343|   -8.187315|    1.434962|
|         252|  5.3841e+00|   -5.371177|   -5.532762|   -5.987934|   -5.616609|   -5.643113|   -8.187810|    1.434883|
|         253|  5.3839e+00|   -5.370738|   -5.532340|   -5.987694|   -5.616313|   -5.642875|   -8.188316|    1.434805|
|         254|  5.3841e+00|   -5.370291|   -5.531909|   -5.987451|   -5.616007|   -5.642629|   -8.188833|    1.434726|
|         255|  5.3840e+00|   -5.369837|   -5.531469|   -5.987207|   -5.615691|   -5.642376|   -8.189361|    1.434648|
|         256|  5.3839e+00|   -5.369374|   -5.531019|   -5.986960|   -5.615366|   -5.642114|   -8.189900|    1.434570|
|         257|  5.3841e+00|   -5.368904|   -5.530560|   -5.986710|   -5.615029|   -5.641844|   -8.190450|    1.434492|
|         258|  5.3841e+00|   -5.368426|   -5.530092|   -5.986459|   -5.614684|   -5.641567|   -8.191012|    1.434414|
|         259|  5.3839e+00|   -5.367941|   -5.529614|   -5.986206|   -5.614329|   -5.641283|   -8.191584|    1.434337|
|         260|  5.3837e+00|   -5.367449|   -5.529128|   -5.985953|   -5.613965|   -5.640991|   -8.192168|    1.434260|
|         261|  5.3836e+00|   -5.366949|   -5.528634|   -5.985695|   -5.613591|   -5.640691|   -8.192762|    1.434183|
|         262|  5.3833e+00|   -5.366442|   -5.528130|   -5.985436|   -5.613208|   -5.640383|   -8.193368|    1.434106|
|         263|  5.3833e+00|   -5.365928|   -5.527617|   -5.985172|   -5.612817|   -5.640068|   -8.193985|    1.434030|
|         264|  5.3832e+00|   -5.365405|   -5.527095|   -5.984904|   -5.612415|   -5.639744|   -8.194613|    1.433953|
|         265|  5.3833e+00|   -5.364873|   -5.526563|   -5.984632|   -5.612002|   -5.639410|   -8.195252|    1.433877|
|         266|  5.3834e+00|   -5.364334|   -5.526022|   -5.984359|   -5.611580|   -5.639069|   -8.195903|    1.433801|
|         267|  5.3832e+00|   -5.363787|   -5.525472|   -5.984083|   -5.611149|   -5.638720|   -8.196564|    1.433725|
|         268|  5.3831e+00|   -5.363234|   -5.524914|   -5.983807|   -5.610710|   -5.638364|   -8.197237|    1.433650|
|         269|  5.3831e+00|   -5.362674|   -5.524348|   -5.983528|   -5.610262|   -5.638000|   -8.197921|    1.433575|
|         270|  5.3831e+00|   -5.362107|   -5.523774|   -5.983247|   -5.609805|   -5.637629|   -8.198616|    1.433500|
|         271|  5.3829e+00|   -5.361533|   -5.523191|   -5.982962|   -5.609338|   -5.637250|   -8.199322|    1.433425|
|         272|  5.3829e+00|   -5.360951|   -5.522600|   -5.982675|   -5.608862|   -5.636863|   -8.200039|    1.433350|
|         273|  5.3827e+00|   -5.360362|   -5.522000|   -5.982384|   -5.608377|   -5.636468|   -8.200767|    1.433276|
|         274|  5.3826e+00|   -5.359765|   -5.521393|   -5.982091|   -5.607882|   -5.636065|   -8.201507|    1.433202|
|         275|  5.3823e+00|   -5.359161|   -5.520777|   -5.981794|   -5.607378|   -5.635653|   -8.202258|    1.433128|
|         276|  5.3822e+00|   -5.358548|   -5.520153|   -5.981494|   -5.606865|   -5.635233|   -8.203020|    1.433054|
|         277|  5.3823e+00|   -5.357930|   -5.519521|   -5.981193|   -5.606344|   -5.634807|   -8.203793|    1.432981|
|         278|  5.3821e+00|   -5.357305|   -5.518881|   -5.980889|   -5.605813|   -5.634373|   -8.204578|    1.432907|
|         279|  5.3819e+00|   -5.356672|   -5.518234|   -5.980581|   -5.605274|   -5.633930|   -8.205375|    1.432834|
|         280|  5.3819e+00|   -5.356033|   -5.517579|   -5.980272|   -5.604725|   -5.633480|   -8.206183|    1.432762|
|         281|  5.3815e+00|   -5.355387|   -5.516916|   -5.979959|   -5.604167|   -5.633023|   -8.207002|    1.432689|
|         282|  5.3811e+00|   -5.354734|   -5.516246|   -5.979645|   -5.603601|   -5.632559|   -8.207832|    1.432617|
|         283|  5.3809e+00|   -5.354075|   -5.515567|   -5.979329|   -5.603026|   -5.632086|   -8.208674|    1.432545|
|         284|  5.3806e+00|   -5.353408|   -5.514882|   -5.979011|   -5.602441|   -5.631606|   -8.209528|    1.432473|
|         285|  5.3801e+00|   -5.352736|   -5.514188|   -5.978690|   -5.601849|   -5.631119|   -8.210392|    1.432401|
|         286|  5.3800e+00|   -5.352057|   -5.513488|   -5.978367|   -5.601248|   -5.630625|   -8.211268|    1.432330|
|         287|  5.3798e+00|   -5.351373|   -5.512780|   -5.978042|   -5.600641|   -5.630124|   -8.212155|    1.432259|
|         288|  5.3796e+00|   -5.350682|   -5.512066|   -5.977713|   -5.600024|   -5.629616|   -8.213054|    1.432188|
|         289|  5.3795e+00|   -5.349985|   -5.511344|   -5.977383|   -5.599400|   -5.629101|   -8.213964|    1.432118|
|         290|  5.3792e+00|   -5.349283|   -5.510615|   -5.977052|   -5.598768|   -5.628580|   -8.214885|    1.432047|
|         291|  5.3790e+00|   -5.348575|   -5.509880|   -5.976719|   -5.598127|   -5.628052|   -8.215818|    1.431977|
|         292|  5.3788e+00|   -5.347861|   -5.509138|   -5.976383|   -5.597479|   -5.627516|   -8.216762|    1.431907|
|         293|  5.3785e+00|   -5.347141|   -5.508389|   -5.976044|   -5.596822|   -5.626973|   -8.217718|    1.431838|
|         294|  5.3784e+00|   -5.346414|   -5.507634|   -5.975703|   -5.596156|   -5.626423|   -8.218685|    1.431768|
|         295|  5.3781e+00|   -5.345683|   -5.506872|   -5.975362|   -5.595484|   -5.625867|   -8.219664|    1.431699|
|         296|  5.3777e+00|   -5.344946|   -5.506104|   -5.975019|   -5.594805|   -5.625304|   -8.220654|    1.431631|
|         297|  5.3774e+00|   -5.344203|   -5.505330|   -5.974674|   -5.594117|   -5.624734|   -8.221655|    1.431562|
|         298|  5.3772e+00|   -5.343455|   -5.504550|   -5.974325|   -5.593422|   -5.624158|   -8.222668|    1.431494|
|         299|  5.3771e+00|   -5.342701|   -5.503763|   -5.973973|   -5.592719|   -5.623575|   -8.223693|    1.431426|
|         300|  5.3769e+00|   -5.341943|   -5.502970|   -5.973619|   -5.592009|   -5.622986|   -8.224730|    1.431358|
+-----------------------------------------------------------------------+
|        File Writing Summary       |              Filename             |
+-----------------------------------------------------------------------+
|SU2 binary restart                 |restart_flow.dat                   |
|Paraview                           |flow.vtu                           |
|Paraview surface                   |surface_flow.vtu                   |
+-----------------------------------------------------------------------+
+--------------------------------------------------------------------------------------------------------------------+
|  Inner_Iter|   Time(sec)|    rms[Rho]|   rms[RhoU]|   rms[RhoV]|   rms[RhoW]|   rms[RhoE]|     rms[nu]|          CD|
+--------------------------------------------------------------------------------------------------------------------+
|         301|  5.4502e+00|   -5.341179|   -5.502172|   -5.973264|   -5.591292|   -5.622391|   -8.225778|    1.431291|
|         302|  5.4529e+00|   -5.340411|   -5.501368|   -5.972906|   -5.590567|   -5.621790|   -8.226837|    1.431224|
|         303|  5.4538e+00|   -5.339637|   -5.500558|   -5.972546|   -5.589836|   -5.621182|   -8.227909|    1.431157|
|         304|  5.4542e+00|   -5.338860|   -5.499743|   -5.972185|   -5.589098|   -5.620569|   -8.228992|    1.431090|
|         305|  5.4546e+00|   -5.338077|   -5.498922|   -5.971823|   -5.588353|   -5.619950|   -8.230087|    1.431024|
|         306|  5.4543e+00|   -5.337290|   -5.498096|   -5.971459|   -5.587601|   -5.619324|   -8.231194|    1.430958|
|         307|  5.4542e+00|   -5.336497|   -5.497265|   -5.971092|   -5.586842|   -5.618693|   -8.232313|    1.430892|
|         308|  5.4540e+00|   -5.335701|   -5.496429|   -5.970725|   -5.586078|   -5.618056|   -8.233444|    1.430826|
|         309|  5.4539e+00|   -5.334901|   -5.495588|   -5.970361|   -5.585308|   -5.617414|   -8.234587|    1.430761|
|         310|  5.4537e+00|   -5.334098|   -5.494742|   -5.969995|   -5.584533|   -5.616768|   -8.235742|    1.430696|
|         311|  5.4532e+00|   -5.333290|   -5.493891|   -5.969627|   -5.583751|   -5.616116|   -8.236909|    1.430632|
|         312|  5.4526e+00|   -5.332476|   -5.493036|   -5.969254|   -5.582962|   -5.615456|   -8.238088|    1.430567|
|         313|  5.4524e+00|   -5.331659|   -5.492175|   -5.968880|   -5.582167|   -5.614792|   -8.239279|    1.430503|
|         314|  5.4523e+00|   -5.330838|   -5.491310|   -5.968504|   -5.581367|   -5.614123|   -8.240483|    1.430439|
|         315|  5.4521e+00|   -5.330013|   -5.490441|   -5.968127|   -5.580560|   -5.613448|   -8.241698|    1.430376|
|         316|  5.4518e+00|   -5.329185|   -5.489568|   -5.967749|   -5.579748|   -5.612769|   -8.242926|    1.430313|
|         317|  5.4513e+00|   -5.328355|   -5.488691|   -5.967372|   -5.578932|   -5.612086|   -8.244166|    1.430250|
|         318|  5.4509e+00|   -5.327521|   -5.487810|   -5.966994|   -5.578111|   -5.611398|   -8.245419|    1.430187|
|         319|  5.4505e+00|   -5.326683|   -5.486924|   -5.966614|   -5.577283|   -5.610705|   -8.246684|    1.430125|
|         320|  5.4503e+00|   -5.325841|   -5.486034|   -5.966232|   -5.576450|   -5.610006|   -8.247961|    1.430063|
|         321|  5.4500e+00|   -5.324996|   -5.485141|   -5.965849|   -5.575611|   -5.609302|   -8.249251|    1.430001|
|         322|  5.4497e+00|   -5.324149|   -5.484245|   -5.965466|   -5.574769|   -5.608595|   -8.250553|    1.429940|
|         323|  5.4493e+00|   -5.323298|   -5.483344|   -5.965081|   -5.573922|   -5.607883|   -8.251867|    1.429878|
|         324|  5.4490e+00|   -5.322444|   -5.482440|   -5.964695|   -5.573070|   -5.607167|   -8.253194|    1.429818|
|         325|  5.4486e+00|   -5.321587|   -5.481533|   -5.964307|   -5.572213|   -5.606445|   -8.254534|    1.429757|
|         326|  5.4484e+00|   -5.320727|   -5.480623|   -5.963917|   -5.571351|   -5.605719|   -8.255886|    1.429697|
|         327|  5.4480e+00|   -5.319864|   -5.479709|   -5.963527|   -5.570485|   -5.604989|   -8.257250|    1.429637|
|         328|  5.4477e+00|   -5.318998|   -5.478792|   -5.963135|   -5.569615|   -5.604255|   -8.258627|    1.429577|
|         329|  5.4474e+00|   -5.318130|   -5.477872|   -5.962742|   -5.568741|   -5.603517|   -8.260016|    1.429518|
|         330|  5.4472e+00|   -5.317259|   -5.476949|   -5.962348|   -5.567862|   -5.602775|   -8.261418|    1.429459|
|         331|  5.4468e+00|   -5.316386|   -5.476024|   -5.961952|   -5.566979|   -5.602029|   -8.262832|    1.429400|
|         332|  5.4465e+00|   -5.315511|   -5.475097|   -5.961557|   -5.566093|   -5.601280|   -8.264259|    1.429342|
|         333|  5.4461e+00|   -5.314634|   -5.474167|   -5.961162|   -5.565204|   -5.600528|   -8.265699|    1.429284|
|         334|  5.4458e+00|   -5.313755|   -5.473236|   -5.960768|   -5.564312|   -5.599773|   -8.267151|    1.429226|
|         335|  5.4456e+00|   -5.312874|   -5.472303|   -5.960373|   -5.563416|   -5.599014|   -8.268615|    1.429168|
|         336|  5.4454e+00|   -5.311991|   -5.471367|   -5.959977|   -5.562517|   -5.598251|   -8.270092|    1.429111|
|         337|  5.4451e+00|   -5.311106|   -5.470430|   -5.959579|   -5.561615|   -5.597486|   -8.271581|    1.429054|
|         338|  5.4448e+00|   -5.310219|   -5.469490|   -5.959181|   -5.560710|   -5.596716|   -8.273083|    1.428998|
|         339|  5.4446e+00|   -5.309330|   -5.468549|   -5.958781|   -5.559802|   -5.595944|   -8.274597|    1.428942|
|         340|  5.4443e+00|   -5.308440|   -5.467605|   -5.958380|   -5.558891|   -5.595169|   -8.276124|    1.428886|
|         341|  5.4439e+00|   -5.307548|   -5.466660|   -5.957978|   -5.557977|   -5.594390|   -8.277663|    1.428830|
|         342|  5.4437e+00|   -5.306655|   -5.465713|   -5.957576|   -5.557061|   -5.593610|   -8.279214|    1.428775|
|         343|  5.4434e+00|   -5.305762|   -5.464764|   -5.957175|   -5.556143|   -5.592828|   -8.280778|    1.428720|
|         344|  5.4433e+00|   -5.304868|   -5.463814|   -5.956774|   -5.555223|   -5.592043|   -8.282354|    1.428665|
|         345|  5.4430e+00|   -5.303973|   -5.462863|   -5.956372|   -5.554300|   -5.591256|   -8.283942|    1.428610|
|         346|  5.4428e+00|   -5.303078|   -5.461910|   -5.955971|   -5.553375|   -5.590468|   -8.285542|    1.428556|
|         347|  5.4425e+00|   -5.302182|   -5.460957|   -5.955571|   -5.552448|   -5.589677|   -8.287155|    1.428502|
|         348|  5.4423e+00|   -5.301286|   -5.460002|   -5.955172|   -5.551519|   -5.588884|   -8.288779|    1.428449|
|         349|  5.4421e+00|   -5.300389|   -5.459047|   -5.954772|   -5.550588|   -5.588090|   -8.290416|    1.428396|
|         350|  5.4417e+00|   -5.299492|   -5.458091|   -5.954375|   -5.549656|   -5.587293|   -8.292065|    1.428343|
|         351|  5.4415e+00|   -5.298595|   -5.457134|   -5.953978|   -5.548723|   -5.586496|   -8.293726|    1.428290|
|         352|  5.4414e+00|   -5.297698|   -5.456177|   -5.953582|   -5.547788|   -5.585696|   -8.295398|    1.428238|
|         353|  5.4413e+00|   -5.296801|   -5.455220|   -5.953185|   -5.546852|   -5.584896|   -8.297082|    1.428186|
|         354|  5.4411e+00|   -5.295906|   -5.454263|   -5.952791|   -5.545916|   -5.584095|   -8.298779|    1.428134|
|         355|  5.4410e+00|   -5.295009|   -5.453305|   -5.952397|   -5.544978|   -5.583293|   -8.300487|    1.428083|
|         356|  5.4408e+00|   -5.294113|   -5.452347|   -5.952002|   -5.544039|   -5.582488|   -8.302206|    1.428032|
|         357|  5.4407e+00|   -5.293217|   -5.451390|   -5.951608|   -5.543099|   -5.581683|   -8.303938|    1.427981|
|         358|  5.4404e+00|   -5.292321|   -5.450432|   -5.951212|   -5.542158|   -5.580876|   -8.305682|    1.427930|
|         359|  5.4402e+00|   -5.291426|   -5.449474|   -5.950816|   -5.541216|   -5.580068|   -8.307437|    1.427880|
|         360|  5.4402e+00|   -5.290531|   -5.448516|   -5.950421|   -5.540273|   -5.579259|   -8.309203|    1.427830|
|         361|  5.4399e+00|   -5.289638|   -5.447558|   -5.950029|   -5.539331|   -5.578451|   -8.310981|    1.427781|
|         362|  5.4397e+00|   -5.288747|   -5.446601|   -5.949636|   -5.538389|   -5.577644|   -8.312769|    1.427731|
|         363|  5.4395e+00|   -5.287856|   -5.445644|   -5.949243|   -5.537447|   -5.576834|   -8.314569|    1.427682|
|         364|  5.4392e+00|   -5.286965|   -5.444688|   -5.948850|   -5.536503|   -5.576023|   -8.316379|    1.427633|
|         365|  5.4387e+00|   -5.286075|   -5.443732|   -5.948457|   -5.535558|   -5.575212|   -8.318200|    1.427585|
|         366|  5.4385e+00|   -5.285186|   -5.442776|   -5.948064|   -5.534613|   -5.574399|   -8.320032|    1.427537|
|         367|  5.4381e+00|   -5.284297|   -5.441821|   -5.947671|   -5.533668|   -5.573586|   -8.321874|    1.427489|
|         368|  5.4379e+00|   -5.283410|   -5.440867|   -5.947280|   -5.532722|   -5.572773|   -8.323727|    1.427441|
|         369|  5.4375e+00|   -5.282523|   -5.439914|   -5.946889|   -5.531777|   -5.571959|   -8.325590|    1.427394|
|         370|  5.4375e+00|   -5.281638|   -5.438961|   -5.946498|   -5.530832|   -5.571145|   -8.327463|    1.427347|
|         371|  5.4372e+00|   -5.280753|   -5.438008|   -5.946105|   -5.529886|   -5.570330|   -8.329346|    1.427300|
|         372|  5.4368e+00|   -5.279869|   -5.437057|   -5.945714|   -5.528941|   -5.569514|   -8.331240|    1.427254|
|         373|  5.4365e+00|   -5.278988|   -5.436107|   -5.945324|   -5.527997|   -5.568700|   -8.333143|    1.427207|
|         374|  5.4362e+00|   -5.278108|   -5.435158|   -5.944936|   -5.527053|   -5.567885|   -8.335055|    1.427162|
|         375|  5.4358e+00|   -5.277229|   -5.434210|   -5.944548|   -5.526111|   -5.567070|   -8.336978|    1.427116|
|         376|  5.4354e+00|   -5.276351|   -5.433263|   -5.944159|   -5.525168|   -5.566255|   -8.338909|    1.427071|
|         377|  5.4349e+00|   -5.275474|   -5.432317|   -5.943772|   -5.524227|   -5.565439|   -8.340850|    1.427026|
|         378|  5.4345e+00|   -5.274599|   -5.431372|   -5.943384|   -5.523287|   -5.564625|   -8.342800|    1.426981|
|         379|  5.4342e+00|   -5.273726|   -5.430430|   -5.942998|   -5.522349|   -5.563810|   -8.344759|    1.426937|
|         380|  5.4338e+00|   -5.272856|   -5.429488|   -5.942614|   -5.521413|   -5.562998|   -8.346726|    1.426892|
|         381|  5.4334e+00|   -5.271988|   -5.428549|   -5.942232|   -5.520479|   -5.562186|   -8.348703|    1.426849|
|         382|  5.4330e+00|   -5.271122|   -5.427612|   -5.941852|   -5.519547|   -5.561375|   -8.350687|    1.426805|
|         383|  5.4327e+00|   -5.270256|   -5.426676|   -5.941472|   -5.518615|   -5.560563|   -8.352680|    1.426762|
|         384|  5.4325e+00|   -5.269393|   -5.425741|   -5.941092|   -5.517685|   -5.559752|   -8.354680|    1.426719|
|         385|  5.4323e+00|   -5.268531|   -5.424808|   -5.940712|   -5.516756|   -5.558940|   -8.356689|    1.426676|
|         386|  5.4322e+00|   -5.267670|   -5.423877|   -5.940331|   -5.515828|   -5.558129|   -8.358704|    1.426634|
|         387|  5.4320e+00|   -5.266810|   -5.422948|   -5.939950|   -5.514902|   -5.557318|   -8.360727|    1.426591|
|         388|  5.4318e+00|   -5.265952|   -5.422021|   -5.939570|   -5.513977|   -5.556507|   -8.362757|    1.426550|
|         389|  5.4316e+00|   -5.265095|   -5.421096|   -5.939190|   -5.513053|   -5.555697|   -8.364794|    1.426508|
|         390|  5.4314e+00|   -5.264240|   -5.420172|   -5.938810|   -5.512130|   -5.554886|   -8.366838|    1.426467|
|         391|  5.4312e+00|   -5.263385|   -5.419250|   -5.938430|   -5.511208|   -5.554074|   -8.368887|    1.426426|
|         392|  5.4310e+00|   -5.262531|   -5.418330|   -5.938051|   -5.510287|   -5.553263|   -8.370942|    1.426385|
|         393|  5.4307e+00|   -5.261680|   -5.417413|   -5.937674|   -5.509368|   -5.552453|   -8.373004|    1.426345|
|         394|  5.4306e+00|   -5.260831|   -5.416497|   -5.937297|   -5.508450|   -5.551644|   -8.375070|    1.426305|
|         395|  5.4303e+00|   -5.259983|   -5.415584|   -5.936920|   -5.507533|   -5.550835|   -8.377141|    1.426265|
|         396|  5.4303e+00|   -5.259136|   -5.414672|   -5.936543|   -5.506617|   -5.550025|   -8.379218|    1.426226|
|         397|  5.4300e+00|   -5.258290|   -5.413763|   -5.936166|   -5.505702|   -5.549217|   -8.381298|    1.426187|
|         398|  5.4297e+00|   -5.257447|   -5.412856|   -5.935790|   -5.504789|   -5.548409|   -8.383383|    1.426148|
|         399|  5.4298e+00|   -5.256605|   -5.411951|   -5.935414|   -5.503877|   -5.547601|   -8.385471|    1.426109|
|         400|  5.4296e+00|   -5.255764|   -5.411048|   -5.935037|   -5.502967|   -5.546794|   -8.387563|    1.426071|
|         401|  5.4293e+00|   -5.254926|   -5.410148|   -5.934661|   -5.502058|   -5.545988|   -8.389657|    1.426033|
|         402|  5.4290e+00|   -5.254089|   -5.409250|   -5.934287|   -5.501152|   -5.545183|   -8.391754|    1.425996|
|         403|  5.4288e+00|   -5.253256|   -5.408355|   -5.933914|   -5.500249|   -5.544380|   -8.393854|    1.425959|
|         404|  5.4286e+00|   -5.252426|   -5.407462|   -5.933543|   -5.499348|   -5.543579|   -8.395955|    1.425922|
|         405|  5.4285e+00|   -5.251598|   -5.406572|   -5.933172|   -5.498449|   -5.542778|   -8.398058|    1.425885|
|         406|  5.4284e+00|   -5.250772|   -5.405685|   -5.932802|   -5.497552|   -5.541979|   -8.400161|    1.425849|
|         407|  5.4281e+00|   -5.249948|   -5.404800|   -5.932433|   -5.496658|   -5.541182|   -8.402265|    1.425813|
|         408|  5.4277e+00|   -5.249128|   -5.403919|   -5.932066|   -5.495765|   -5.540387|   -8.404369|    1.425777|
|         409|  5.4273e+00|   -5.248310|   -5.403039|   -5.931700|   -5.494875|   -5.539593|   -8.406472|    1.425742|
|         410|  5.4270e+00|   -5.247494|   -5.402163|   -5.931336|   -5.493986|   -5.538800|   -8.408574|    1.425707|
|         411|  5.4268e+00|   -5.246680|   -5.401289|   -5.930972|   -5.493100|   -5.538009|   -8.410675|    1.425672|
|         412|  5.4266e+00|   -5.245870|   -5.400417|   -5.930609|   -5.492216|   -5.537220|   -8.412774|    1.425638|
|         413|  5.4263e+00|   -5.245062|   -5.399548|   -5.930247|   -5.491335|   -5.536432|   -8.414870|    1.425604|
|         414|  5.4263e+00|   -5.244256|   -5.398682|   -5.929885|   -5.490456|   -5.535645|   -8.416962|    1.425571|
|         415|  5.4261e+00|   -5.243453|   -5.397818|   -5.929525|   -5.489579|   -5.534860|   -8.419051|    1.425537|
|         416|  5.4259e+00|   -5.242652|   -5.396956|   -5.929164|   -5.488703|   -5.534076|   -8.421136|    1.425505|
|         417|  5.4257e+00|   -5.241854|   -5.396097|   -5.928803|   -5.487830|   -5.533294|   -8.423216|    1.425472|
|         418|  5.4256e+00|   -5.241059|   -5.395241|   -5.928444|   -5.486959|   -5.532514|   -8.425290|    1.425440|
|         419|  5.4255e+00|   -5.240266|   -5.394388|   -5.928085|   -5.486092|   -5.531735|   -8.427358|    1.425408|
|         420|  5.4251e+00|   -5.239476|   -5.393538|   -5.927727|   -5.485226|   -5.530957|   -8.429420|    1.425377|
|         421|  5.4250e+00|   -5.238690|   -5.392691|   -5.927369|   -5.484364|   -5.530182|   -8.431473|    1.425346|
|         422|  5.4248e+00|   -5.237906|   -5.391847|   -5.927012|   -5.483504|   -5.529409|   -8.433519|    1.425315|
|         423|  5.4247e+00|   -5.237125|   -5.391006|   -5.926656|   -5.482647|   -5.528638|   -8.435555|    1.425285|
|         424|  5.4245e+00|   -5.236348|   -5.390168|   -5.926302|   -5.481793|   -5.527870|   -8.437582|    1.425255|
|         425|  5.4242e+00|   -5.235573|   -5.389334|   -5.925947|   -5.480942|   -5.527103|   -8.439599|    1.425225|
|         426|  5.4238e+00|   -5.234801|   -5.388502|   -5.925593|   -5.480093|   -5.526338|   -8.441604|    1.425196|
|         427|  5.4235e+00|   -5.234033|   -5.387674|   -5.925239|   -5.479247|   -5.525575|   -8.443598|    1.425167|
|         428|  5.4236e+00|   -5.233268|   -5.386848|   -5.924887|   -5.478404|   -5.524815|   -8.445579|    1.425139|
|         429|  5.4236e+00|   -5.232504|   -5.386024|   -5.924535|   -5.477560|   -5.524055|   -8.447546|    1.425110|
|         430|  5.4235e+00|   -5.231743|   -5.385203|   -5.924182|   -5.476719|   -5.523296|   -8.449500|    1.425083|
|         431|  5.4233e+00|   -5.230984|   -5.384384|   -5.923828|   -5.475879|   -5.522538|   -8.451438|    1.425056|
|         432|  5.4232e+00|   -5.230230|   -5.383569|   -5.923476|   -5.475043|   -5.521784|   -8.453360|    1.425029|
|         433|  5.4231e+00|   -5.229478|   -5.382757|   -5.923125|   -5.474210|   -5.521031|   -8.455266|    1.425002|
|         434|  5.4232e+00|   -5.228730|   -5.381948|   -5.922774|   -5.473379|   -5.520281|   -8.457154|    1.424976|
|         435|  5.4230e+00|   -5.227984|   -5.381142|   -5.922425|   -5.472551|   -5.519533|   -8.459024|    1.424950|
|         436|  5.4229e+00|   -5.227242|   -5.380340|   -5.922077|   -5.471726|   -5.518787|   -8.460874|    1.424925|
|         437|  5.4226e+00|   -5.226503|   -5.379540|   -5.921730|   -5.470903|   -5.518043|   -8.462705|    1.424900|
|         438|  5.4227e+00|   -5.225767|   -5.378743|   -5.921384|   -5.470083|   -5.517302|   -8.464514|    1.424876|
|         439|  5.4226e+00|   -5.225034|   -5.377950|   -5.921040|   -5.469267|   -5.516563|   -8.466301|    1.424852|
|         440|  5.4224e+00|   -5.224305|   -5.377160|   -5.920698|   -5.468454|   -5.515826|   -8.468065|    1.424828|
|         441|  5.4223e+00|   -5.223579|   -5.376372|   -5.920356|   -5.467644|   -5.515092|   -8.469806|    1.424805|
|         442|  5.4222e+00|   -5.222856|   -5.375588|   -5.920016|   -5.466837|   -5.514360|   -8.471522|    1.424782|
|         443|  5.4221e+00|   -5.222136|   -5.374807|   -5.919677|   -5.466033|   -5.513630|   -8.473212|    1.424760|
|         444|  5.4221e+00|   -5.221419|   -5.374028|   -5.919340|   -5.465232|   -5.512902|   -8.474876|    1.424738|
|         445|  5.4219e+00|   -5.220703|   -5.373253|   -5.919004|   -5.464433|   -5.512175|   -8.476513|    1.424716|
|         446|  5.4217e+00|   -5.219991|   -5.372481|   -5.918670|   -5.463637|   -5.511450|   -8.478121|    1.424695|
|         447|  5.4214e+00|   -5.219282|   -5.371712|   -5.918337|   -5.462844|   -5.510728|   -8.479700|    1.424674|
|         448|  5.4212e+00|   -5.218576|   -5.370945|   -5.918006|   -5.462054|   -5.510007|   -8.481248|    1.424654|
|         449|  5.4209e+00|   -5.217872|   -5.370182|   -5.917676|   -5.461268|   -5.509289|   -8.482766|    1.424634|
|         450|  5.4209e+00|   -5.217172|   -5.369422|   -5.917347|   -5.460484|   -5.508573|   -8.484251|    1.424615|
+-----------------------------------------------------------------------+
|        File Writing Summary       |              Filename             |
+-----------------------------------------------------------------------+
|SU2 binary restart                 |restart_flow.dat                   |
|Paraview                           |flow.vtu                           |
|Paraview surface                   |surface_flow.vtu                   |
+-----------------------------------------------------------------------+
+--------------------------------------------------------------------------------------------------------------------+
|  Inner_Iter|   Time(sec)|    rms[Rho]|   rms[RhoU]|   rms[RhoV]|   rms[RhoW]|   rms[RhoE]|     rms[nu]|          CD|
+--------------------------------------------------------------------------------------------------------------------+
|         451|  5.4690e+00|   -5.216475|   -5.368665|   -5.917020|   -5.459703|   -5.507860|   -8.485703|    1.424596|
|         452|  5.4691e+00|   -5.215781|   -5.367911|   -5.916697|   -5.458926|   -5.507149|   -8.487121|    1.424577|
|         453|  5.4690e+00|   -5.215091|   -5.367161|   -5.916375|   -5.458153|   -5.506442|   -8.488505|    1.424559|
|         454|  5.4688e+00|   -5.214405|   -5.366414|   -5.916055|   -5.457382|   -5.505737|   -8.489853|    1.424541|
|         455|  5.4687e+00|   -5.213722|   -5.365670|   -5.915738|   -5.456616|   -5.505035|   -8.491164|    1.424524|
|         456|  5.4685e+00|   -5.213044|   -5.364932|   -5.915424|   -5.455854|   -5.504337|   -8.492437|    1.424508|
|         457|  5.4683e+00|   -5.212369|   -5.364197|   -5.915112|   -5.455095|   -5.503642|   -8.493672|    1.424491|
|         458|  5.4681e+00|   -5.211700|   -5.363466|   -5.914803|   -5.454342|   -5.502950|   -8.494868|    1.424475|
|         459|  5.4679e+00|   -5.211033|   -5.362738|   -5.914495|   -5.453591|   -5.502262|   -8.496024|    1.424460|
|         460|  5.4677e+00|   -5.210369|   -5.362014|   -5.914189|   -5.452844|   -5.501575|   -8.497139|    1.424445|
|         461|  5.4675e+00|   -5.209708|   -5.361293|   -5.913885|   -5.452100|   -5.500890|   -8.498212|    1.424431|
|         462|  5.4671e+00|   -5.209051|   -5.360575|   -5.913582|   -5.451360|   -5.500208|   -8.499243|    1.424416|
|         463|  5.4671e+00|   -5.208397|   -5.359860|   -5.913281|   -5.450623|   -5.499529|   -8.500230|    1.424403|
|         464|  5.4669e+00|   -5.207746|   -5.359149|   -5.912982|   -5.449890|   -5.498853|   -8.501173|    1.424390|
|         465|  5.4668e+00|   -5.207098|   -5.358441|   -5.912683|   -5.449159|   -5.498178|   -8.502072|    1.424377|
|         466|  5.4665e+00|   -5.206453|   -5.357737|   -5.912388|   -5.448431|   -5.497506|   -8.502925|    1.424365|
|         467|  5.4662e+00|   -5.205813|   -5.357036|   -5.912095|   -5.447707|   -5.496837|   -8.503732|    1.424353|
|         468|  5.4659e+00|   -5.205176|   -5.356339|   -5.911804|   -5.446986|   -5.496172|   -8.504493|    1.424342|
|         469|  5.4658e+00|   -5.204542|   -5.355645|   -5.911514|   -5.446268|   -5.495509|   -8.505206|    1.424331|
|         470|  5.4656e+00|   -5.203912|   -5.354955|   -5.911226|   -5.445554|   -5.494849|   -8.505871|    1.424321|
|         471|  5.4654e+00|   -5.203286|   -5.354267|   -5.910941|   -5.444843|   -5.494192|   -8.506488|    1.424311|
|         472|  5.4654e+00|   -5.202665|   -5.353584|   -5.910658|   -5.444136|   -5.493539|   -8.507057|    1.424302|
|         473|  5.4653e+00|   -5.202048|   -5.352904|   -5.910378|   -5.443433|   -5.492890|   -8.507576|    1.424293|
|         474|  5.4650e+00|   -5.201435|   -5.352228|   -5.910100|   -5.442734|   -5.492243|   -8.508045|    1.424284|
|         475|  5.4647e+00|   -5.200825|   -5.351555|   -5.909824|   -5.442038|   -5.491600|   -8.508465|    1.424276|
|         476|  5.4645e+00|   -5.200219|   -5.350887|   -5.909551|   -5.441346|   -5.490959|   -8.508834|    1.424269|
|         477|  5.4643e+00|   -5.199616|   -5.350222|   -5.909280|   -5.440657|   -5.490321|   -8.509152|    1.424262|
|         478|  5.4640e+00|   -5.199018|   -5.349561|   -5.909011|   -5.439973|   -5.489686|   -8.509419|    1.424255|
|         479|  5.4638e+00|   -5.198423|   -5.348903|   -5.908745|   -5.439291|   -5.489054|   -8.509636|    1.424249|
|         480|  5.4636e+00|   -5.197831|   -5.348248|   -5.908481|   -5.438613|   -5.488424|   -8.509801|    1.424244|
|         481|  5.4632e+00|   -5.197243|   -5.347598|   -5.908218|   -5.437939|   -5.487798|   -8.509914|    1.424239|
|         482|  5.4631e+00|   -5.196659|   -5.346951|   -5.907958|   -5.437268|   -5.487174|   -8.509976|    1.424234|
|         483|  5.4629e+00|   -5.196079|   -5.346307|   -5.907699|   -5.436601|   -5.486554|   -8.509986|    1.424230|
|         484|  5.4627e+00|   -5.195503|   -5.345668|   -5.907441|   -5.435938|   -5.485937|   -8.509945|    1.424227|
|         485|  5.4625e+00|   -5.194931|   -5.345033|   -5.907186|   -5.435278|   -5.485323|   -8.509853|    1.424224|
|         486|  5.4622e+00|   -5.194363|   -5.344402|   -5.906932|   -5.434623|   -5.484713|   -8.509709|    1.424221|
|         487|  5.4618e+00|   -5.193799|   -5.343775|   -5.906681|   -5.433972|   -5.484105|   -8.509513|    1.424219|
|         488|  5.4615e+00|   -5.193238|   -5.343153|   -5.906430|   -5.433324|   -5.483501|   -8.509267|    1.424217|
|         489|  5.4612e+00|   -5.192682|   -5.342534|   -5.906181|   -5.432681|   -5.482900|   -8.508969|    1.424216|
|         490|  5.4611e+00|   -5.192130|   -5.341920|   -5.905934|   -5.432041|   -5.482302|   -8.508621|    1.424215|
|         491|  5.4607e+00|   -5.191582|   -5.341309|   -5.905688|   -5.431406|   -5.481708|   -8.508223|    1.424215|
|         492|  5.4603e+00|   -5.191037|   -5.340703|   -5.905443|   -5.430774|   -5.481116|   -8.507774|    1.424216|
|         493|  5.4601e+00|   -5.190497|   -5.340100|   -5.905200|   -5.430146|   -5.480528|   -8.507276|    1.424216|
|         494|  5.4598e+00|   -5.189960|   -5.339502|   -5.904959|   -5.429522|   -5.479943|   -8.506728|    1.424218|
|         495|  5.4596e+00|   -5.189427|   -5.338907|   -5.904719|   -5.428901|   -5.479360|   -8.506132|    1.424220|
|         496|  5.4593e+00|   -5.188898|   -5.338317|   -5.904481|   -5.428285|   -5.478781|   -8.505487|    1.424222|
|         497|  5.4590e+00|   -5.188373|   -5.337731|   -5.904246|   -5.427672|   -5.478205|   -8.504795|    1.424225|
|         498|  5.4588e+00|   -5.187853|   -5.337149|   -5.904012|   -5.427064|   -5.477634|   -8.504056|    1.424228|
|         499|  5.4585e+00|   -5.187337|   -5.336572|   -5.903780|   -5.426460|   -5.477065|   -8.503269|    1.424232|
|         500|  5.4582e+00|   -5.186825|   -5.336000|   -5.903549|   -5.425860|   -5.476500|   -8.502437|    1.424236|
|         501|  5.4581e+00|   -5.186317|   -5.335432|   -5.903321|   -5.425265|   -5.475939|   -8.501559|    1.424241|
|         502|  5.4578e+00|   -5.185813|   -5.334869|   -5.903094|   -5.424674|   -5.475381|   -8.500637|    1.424246|
|         503|  5.4576e+00|   -5.185314|   -5.334311|   -5.902870|   -5.424087|   -5.474827|   -8.499670|    1.424252|
|         504|  5.4573e+00|   -5.184819|   -5.333757|   -5.902650|   -5.423505|   -5.474277|   -8.498660|    1.424258|
|         505|  5.4569e+00|   -5.184329|   -5.333208|   -5.902431|   -5.422927|   -5.473731|   -8.497607|    1.424265|
|         506|  5.4568e+00|   -5.183844|   -5.332664|   -5.902216|   -5.422355|   -5.473189|   -8.496513|    1.424272|
|         507|  5.4565e+00|   -5.183363|   -5.332124|   -5.902004|   -5.421787|   -5.472652|   -8.495378|    1.424280|
|         508|  5.4562e+00|   -5.182887|   -5.331590|   -5.901794|   -5.421223|   -5.472118|   -8.494202|    1.424288|
|         509|  5.4560e+00|   -5.182415|   -5.331059|   -5.901586|   -5.420664|   -5.471588|   -8.492987|    1.424296|
|         510|  5.4558e+00|   -5.181948|   -5.330534|   -5.901382|   -5.420110|   -5.471062|   -8.491733|    1.424306|
|         511|  5.4556e+00|   -5.181485|   -5.330014|   -5.901179|   -5.419561|   -5.470540|   -8.490442|    1.424315|
|         512|  5.4554e+00|   -5.181028|   -5.329498|   -5.900978|   -5.419016|   -5.470022|   -8.489113|    1.424325|
|         513|  5.4551e+00|   -5.180575|   -5.328988|   -5.900781|   -5.418477|   -5.469508|   -8.487749|    1.424336|
|         514|  5.4549e+00|   -5.180126|   -5.328482|   -5.900585|   -5.417942|   -5.468999|   -8.486349|    1.424347|
|         515|  5.4546e+00|   -5.179683|   -5.327981|   -5.900391|   -5.417413|   -5.468493|   -8.484916|    1.424359|
|         516|  5.4544e+00|   -5.179243|   -5.327485|   -5.900200|   -5.416888|   -5.467991|   -8.483449|    1.424371|
|         517|  5.4543e+00|   -5.178808|   -5.326994|   -5.900010|   -5.416368|   -5.467493|   -8.481949|    1.424383|
|         518|  5.4540e+00|   -5.178377|   -5.326508|   -5.899823|   -5.415853|   -5.466999|   -8.480418|    1.424396|
|         519|  5.4537e+00|   -5.177952|   -5.326028|   -5.899640|   -5.415343|   -5.466510|   -8.478857|    1.424409|
|         520|  5.4536e+00|   -5.177532|   -5.325552|   -5.899461|   -5.414839|   -5.466026|   -8.477265|    1.424423|
|         521|  5.4533e+00|   -5.177118|   -5.325082|   -5.899283|   -5.414340|   -5.465546|   -8.475645|    1.424438|
|         522|  5.4531e+00|   -5.176708|   -5.324617|   -5.899108|   -5.413846|   -5.465071|   -8.473997|    1.424453|
|         523|  5.4528e+00|   -5.176303|   -5.324157|   -5.898934|   -5.413356|   -5.464600|   -8.472322|    1.424468|
|         524|  5.4526e+00|   -5.175903|   -5.323702|   -5.898762|   -5.412872|   -5.464133|   -8.470620|    1.424484|
|         525|  5.4523e+00|   -5.175507|   -5.323253|   -5.898592|   -5.412393|   -5.463670|   -8.468894|    1.424500|
|         526|  5.4522e+00|   -5.175117|   -5.322809|   -5.898425|   -5.411919|   -5.463212|   -8.467143|    1.424517|
|         527|  5.4520e+00|   -5.174731|   -5.322370|   -5.898261|   -5.411450|   -5.462758|   -8.465368|    1.424534|
|         528|  5.4519e+00|   -5.174351|   -5.321937|   -5.898100|   -5.410987|   -5.462310|   -8.463571|    1.424551|
|         529|  5.4518e+00|   -5.173977|   -5.321509|   -5.897942|   -5.410529|   -5.461866|   -8.461752|    1.424569|
|         530|  5.4517e+00|   -5.173608|   -5.321086|   -5.897787|   -5.410076|   -5.461427|   -8.459913|    1.424588|
|         531|  5.4514e+00|   -5.173243|   -5.320669|   -5.897633|   -5.409629|   -5.460992|   -8.458053|    1.424607|
|         532|  5.4512e+00|   -5.172884|   -5.320257|   -5.897482|   -5.409187|   -5.460562|   -8.456174|    1.424626|
|         533|  5.4511e+00|   -5.172530|   -5.319851|   -5.897334|   -5.408751|   -5.460137|   -8.454277|    1.424646|
|         534|  5.4509e+00|   -5.172181|   -5.319449|   -5.897187|   -5.408319|   -5.459716|   -8.452362|    1.424666|
|         535|  5.4507e+00|   -5.171837|   -5.319053|   -5.897044|   -5.407894|   -5.459300|   -8.450431|    1.424687|
|         536|  5.4507e+00|   -5.171499|   -5.318663|   -5.896905|   -5.407474|   -5.458889|   -8.448483|    1.424708|
|         537|  5.4505e+00|   -5.171167|   -5.318278|   -5.896768|   -5.407059|   -5.458484|   -8.446521|    1.424730|
|         538|  5.4502e+00|   -5.170840|   -5.317899|   -5.896633|   -5.406650|   -5.458083|   -8.444544|    1.424752|
[...]
|        6665|  5.5127e+00|   -4.696840|   -4.835829|   -5.491159|   -4.916096|   -4.977953|   -8.104766|    1.387198|
|        6666|  5.5127e+00|   -4.696891|   -4.835810|   -5.491241|   -4.916069|   -4.977890|   -8.104293|    1.387248|
|        6667|  5.5127e+00|   -4.696946|   -4.835796|   -5.491325|   -4.916047|   -4.977831|   -8.103784|    1.387300|
|        6668|  5.5127e+00|   -4.697006|   -4.835787|   -5.491412|   -4.916031|   -4.977778|   -8.103242|    1.387352|
|        6669|  5.5127e+00|   -4.697071|   -4.835783|   -5.491500|   -4.916020|   -4.977729|   -8.102665|    1.387406|
|        6670|  5.5126e+00|   -4.697140|   -4.835783|   -5.491591|   -4.916013|   -4.977683|   -8.102054|    1.387461|
|        6671|  5.5126e+00|   -4.697213|   -4.835788|   -5.491683|   -4.916011|   -4.977642|   -8.101409|    1.387517|
|        6672|  5.5126e+00|   -4.697291|   -4.835796|   -5.491778|   -4.916013|   -4.977605|   -8.100732|    1.387574|
|        6673|  5.5126e+00|   -4.697371|   -4.835807|   -5.491875|   -4.916017|   -4.977569|   -8.100021|    1.387632|
|        6674|  5.5126e+00|   -4.697448|   -4.835813|   -5.491972|   -4.916019|   -4.977531|   -8.099278|    1.387691|
|        6675|  5.5126e+00|   -4.697531|   -4.835825|   -5.492072|   -4.916025|   -4.977497|   -8.098503|    1.387751|
|        6676|  5.5126e+00|   -4.697617|   -4.835840|   -5.492172|   -4.916036|   -4.977467|   -8.097697|    1.387813|
|        6677|  5.5125e+00|   -4.697707|   -4.835860|   -5.492275|   -4.916051|   -4.977440|   -8.096860|    1.387875|
|        6678|  5.5125e+00|   -4.697802|   -4.835884|   -5.492380|   -4.916071|   -4.977417|   -8.095992|    1.387938|
|        6679|  5.5125e+00|   -4.697901|   -4.835913|   -5.492487|   -4.916095|   -4.977398|   -8.095094|    1.388003|
|        6680|  5.5125e+00|   -4.698003|   -4.835946|   -5.492595|   -4.916124|   -4.977383|   -8.094166|    1.388068|
|        6681|  5.5125e+00|   -4.698110|   -4.835984|   -5.492705|   -4.916157|   -4.977371|   -8.093210|    1.388134|
|        6682|  5.5125e+00|   -4.698221|   -4.836026|   -5.492816|   -4.916194|   -4.977363|   -8.092225|    1.388202|
|        6683|  5.5125e+00|   -4.698336|   -4.836073|   -5.492929|   -4.916235|   -4.977359|   -8.091211|    1.388270|
|        6684|  5.5124e+00|   -4.698455|   -4.836125|   -5.493044|   -4.916281|   -4.977359|   -8.090170|    1.388340|
|        6685|  5.5124e+00|   -4.698578|   -4.836181|   -5.493159|   -4.916332|   -4.977362|   -8.089103|    1.388411|
|        6686|  5.5124e+00|   -4.698706|   -4.836242|   -5.493277|   -4.916387|   -4.977370|   -8.088008|    1.388482|
|        6687|  5.5124e+00|   -4.698839|   -4.836309|   -5.493397|   -4.916447|   -4.977383|   -8.086888|    1.388555|
|        6688|  5.5124e+00|   -4.698976|   -4.836380|   -5.493518|   -4.916513|   -4.977399|   -8.085742|    1.388628|
|        6689|  5.5124e+00|   -4.699118|   -4.836457|   -5.493641|   -4.916582|   -4.977420|   -8.084572|    1.388703|
|        6690|  5.5124e+00|   -4.699262|   -4.836537|   -5.493765|   -4.916655|   -4.977443|   -8.083378|    1.388779|
|        6691|  5.5123e+00|   -4.699411|   -4.836622|   -5.493892|   -4.916733|   -4.977470|   -8.082160|    1.388855|
|        6692|  5.5123e+00|   -4.699563|   -4.836712|   -5.494021|   -4.916815|   -4.977500|   -8.080919|    1.388933|
|        6693|  5.5123e+00|   -4.699720|   -4.836807|   -5.494151|   -4.916901|   -4.977535|   -8.079655|    1.389012|
|        6694|  5.5123e+00|   -4.699881|   -4.836906|   -5.494283|   -4.916992|   -4.977573|   -8.078370|    1.389091|
|        6695|  5.5123e+00|   -4.700046|   -4.837011|   -5.494416|   -4.917088|   -4.977616|   -8.077064|    1.389172|
|        6696|  5.5122e+00|   -4.700216|   -4.837121|   -5.494551|   -4.917189|   -4.977663|   -8.075737|    1.389253|
|        6697|  5.5122e+00|   -4.700390|   -4.837237|   -5.494688|   -4.917294|   -4.977714|   -8.074390|    1.389336|
|        6698|  5.5122e+00|   -4.700569|   -4.837357|   -5.494827|   -4.917404|   -4.977769|   -8.073023|    1.389419|
|        6699|  5.5122e+00|   -4.700753|   -4.837483|   -5.494969|   -4.917520|   -4.977829|   -8.071638|    1.389504|
|        6700|  5.5122e+00|   -4.700942|   -4.837614|   -5.495112|   -4.917640|   -4.977894|   -8.070234|    1.389589|
|        6701|  5.5122e+00|   -4.701136|   -4.837750|   -5.495258|   -4.917766|   -4.977963|   -8.068812|    1.389676|
|        6702|  5.5121e+00|   -4.701334|   -4.837892|   -5.495406|   -4.917897|   -4.978037|   -8.067374|    1.389763|
|        6703|  5.5121e+00|   -4.701537|   -4.838039|   -5.495555|   -4.918031|   -4.978115|   -8.065918|    1.389852|
|        6704|  5.5121e+00|   -4.701744|   -4.838191|   -5.495705|   -4.918171|   -4.978197|   -8.064447|    1.389941|
|        6705|  5.5121e+00|   -4.701956|   -4.838349|   -5.495856|   -4.918316|   -4.978284|   -8.062959|    1.390031|
|        6706|  5.5121e+00|   -4.702173|   -4.838513|   -5.496008|   -4.918465|   -4.978375|   -8.061457|    1.390122|
|        6707|  5.5121e+00|   -4.702395|   -4.838681|   -5.496162|   -4.918619|   -4.978471|   -8.059941|    1.390215|
|        6708|  5.5120e+00|   -4.702622|   -4.838855|   -5.496315|   -4.918778|   -4.978571|   -8.058411|    1.390308|
|        6709|  5.5120e+00|   -4.702851|   -4.839031|   -5.496470|   -4.918939|   -4.978674|   -8.056867|    1.390402|
|        6710|  5.5120e+00|   -4.703086|   -4.839214|   -5.496626|   -4.919105|   -4.978781|   -8.055311|    1.390497|
|        6711|  5.5120e+00|   -4.703327|   -4.839402|   -5.496786|   -4.919277|   -4.978895|   -8.053743|    1.390593|
|        6712|  5.5120e+00|   -4.703571|   -4.839595|   -5.496949|   -4.919453|   -4.979012|   -8.052162|    1.390689|
|        6713|  5.5119e+00|   -4.703820|   -4.839791|   -5.497113|   -4.919632|   -4.979132|   -8.050571|    1.390787|
|        6714|  5.5119e+00|   -4.704074|   -4.839993|   -5.497279|   -4.919816|   -4.979258|   -8.048969|    1.390886|
|        6715|  5.5119e+00|   -4.704333|   -4.840201|   -5.497446|   -4.920006|   -4.979388|   -8.047357|    1.390985|
|        6716|  5.5119e+00|   -4.704597|   -4.840413|   -5.497614|   -4.920201|   -4.979523|   -8.045735|    1.391086|
|        6717|  5.5119e+00|   -4.704867|   -4.840632|   -5.497784|   -4.920401|   -4.979664|   -8.044104|    1.391187|
|        6718|  5.5118e+00|   -4.705142|   -4.840856|   -5.497956|   -4.920606|   -4.979809|   -8.042464|    1.391290|
|        6719|  5.5118e+00|   -4.705424|   -4.841086|   -5.498129|   -4.920817|   -4.979960|   -8.040816|    1.391393|
|        6720|  5.5118e+00|   -4.705712|   -4.841322|   -5.498303|   -4.921034|   -4.980116|   -8.039160|    1.391497|
|        6721|  5.5118e+00|   -4.706005|   -4.841565|   -5.498481|   -4.921256|   -4.980279|   -8.037498|    1.391602|
|        6722|  5.5118e+00|   -4.706305|   -4.841814|   -5.498659|   -4.921484|   -4.980446|   -8.035828|    1.391708|
|        6723|  5.5118e+00|   -4.706611|   -4.842069|   -5.498840|   -4.921718|   -4.980619|   -8.034152|    1.391815|
|        6724|  5.5118e+00|   -4.706922|   -4.842330|   -5.499021|   -4.921957|   -4.980798|   -8.032470|    1.391922|
|        6725|  5.5117e+00|   -4.707238|   -4.842596|   -5.499205|   -4.922202|   -4.980981|   -8.030783|    1.392031|
|        6726|  5.5117e+00|   -4.707561|   -4.842869|   -5.499390|   -4.922453|   -4.981170|   -8.029090|    1.392140|
|        6727|  5.5117e+00|   -4.707889|   -4.843148|   -5.499577|   -4.922710|   -4.981364|   -8.027393|    1.392251|
|        6728|  5.5117e+00|   -4.708224|   -4.843433|   -5.499768|   -4.922972|   -4.981565|   -8.025691|    1.392362|
|        6729|  5.5117e+00|   -4.708566|   -4.843725|   -5.499962|   -4.923241|   -4.981772|   -8.023985|    1.392474|
|        6730|  5.5116e+00|   -4.708913|   -4.844024|   -5.500158|   -4.923515|   -4.981984|   -8.022275|    1.392587|
|        6731|  5.5116e+00|   -4.709267|   -4.844328|   -5.500356|   -4.923796|   -4.982203|   -8.020561|    1.392701|
|        6732|  5.5116e+00|   -4.709627|   -4.844639|   -5.500556|   -4.924083|   -4.982427|   -8.018844|    1.392816|
|        6733|  5.5116e+00|   -4.709994|   -4.844957|   -5.500760|   -4.924376|   -4.982658|   -8.017125|    1.392932|
|        6734|  5.5116e+00|   -4.710367|   -4.845281|   -5.500967|   -4.924676|   -4.982894|   -8.015403|    1.393048|
|        6735|  5.5116e+00|   -4.710746|   -4.845611|   -5.501175|   -4.924982|   -4.983137|   -8.013679|    1.393165|
|        6736|  5.5116e+00|   -4.711132|   -4.845949|   -5.501387|   -4.925295|   -4.983385|   -8.011954|    1.393284|
|        6737|  5.5115e+00|   -4.711523|   -4.846292|   -5.501598|   -4.925613|   -4.983639|   -8.010228|    1.393403|
|        6738|  5.5115e+00|   -4.711918|   -4.846640|   -5.501811|   -4.925936|   -4.983896|   -8.008501|    1.393523|
|        6739|  5.5115e+00|   -4.712319|   -4.846994|   -5.502026|   -4.926265|   -4.984160|   -8.006773|    1.393644|
|        6740|  5.5115e+00|   -4.712727|   -4.847356|   -5.502243|   -4.926600|   -4.984430|   -8.005046|    1.393765|
|        6741|  5.5114e+00|   -4.713141|   -4.847723|   -5.502462|   -4.926941|   -4.984705|   -8.003318|    1.393888|
|        6742|  5.5114e+00|   -4.713560|   -4.848097|   -5.502684|   -4.927288|   -4.984985|   -8.001591|    1.394011|
|        6743|  5.5114e+00|   -4.713985|   -4.848477|   -5.502908|   -4.927640|   -4.985271|   -7.999864|    1.394135|
|        6744|  5.5114e+00|   -4.714416|   -4.848863|   -5.503134|   -4.927999|   -4.985563|   -7.998137|    1.394261|
|        6745|  5.5114e+00|   -4.714852|   -4.849256|   -5.503361|   -4.928364|   -4.985859|   -7.996411|    1.394386|
|        6746|  5.5113e+00|   -4.715295|   -4.849656|   -5.503591|   -4.928736|   -4.986162|   -7.994688|    1.394513|
|        6747|  5.5113e+00|   -4.715744|   -4.850062|   -5.503823|   -4.929114|   -4.986470|   -7.992966|    1.394641|
|        6748|  5.5113e+00|   -4.716199|   -4.850475|   -5.504056|   -4.929497|   -4.986785|   -7.991247|    1.394769|
|        6749|  5.5113e+00|   -4.716660|   -4.850894|   -5.504292|   -4.929887|   -4.987105|   -7.989531|    1.394899|
|        6750|  5.5113e+00|   -4.717127|   -4.851319|   -5.504529|   -4.930283|   -4.987430|   -7.987817|    1.395029|
+-----------------------------------------------------------------------+
|        File Writing Summary       |              Filename             |
+-----------------------------------------------------------------------+
|SU2 binary restart                 |restart_flow.dat                   |
|Paraview                           |flow.vtu                           |
|Paraview surface                   |surface_flow.vtu                   |
+-----------------------------------------------------------------------+
+--------------------------------------------------------------------------------------------------------------------+
|  Inner_Iter|   Time(sec)|    rms[Rho]|   rms[RhoU]|   rms[RhoV]|   rms[RhoW]|   rms[RhoE]|     rms[nu]|          CD|
+--------------------------------------------------------------------------------------------------------------------+
|        6751|  5.5147e+00|   -4.717600|   -4.851751|   -5.504769|   -4.930684|   -4.987761|   -7.986106|    1.395160|
|        6752|  5.5147e+00|   -4.718078|   -4.852189|   -5.505013|   -4.931091|   -4.988097|   -7.984399|    1.395291|
|        6753|  5.5147e+00|   -4.718561|   -4.852632|   -5.505260|   -4.931503|   -4.988437|   -7.982695|    1.395424|
|        6754|  5.5147e+00|   -4.719050|   -4.853082|   -5.505508|   -4.931920|   -4.988783|   -7.980994|    1.395557|
|        6755|  5.5147e+00|   -4.719545|   -4.853538|   -5.505758|   -4.932343|   -4.989134|   -7.979298|    1.395691|
|        6756|  5.5146e+00|   -4.720045|   -4.854001|   -5.506009|   -4.932772|   -4.989490|   -7.977605|    1.395826|
|        6757|  5.5146e+00|   -4.720552|   -4.854469|   -5.506263|   -4.933206|   -4.989851|   -7.975917|    1.395962|
|        6758|  5.5146e+00|   -4.721063|   -4.854943|   -5.506519|   -4.933645|   -4.990217|   -7.974233|    1.396099|
|        6759|  5.5146e+00|   -4.721580|   -4.855422|   -5.506774|   -4.934088|   -4.990588|   -7.972554|    1.396236|
|        6760|  5.5146e+00|   -4.722102|   -4.855907|   -5.507032|   -4.934538|   -4.990963|   -7.970879|    1.396374|
|        6761|  5.5146e+00|   -4.722630|   -4.856397|   -5.507292|   -4.934992|   -4.991344|   -7.969210|    1.396513|
|        6762|  5.5145e+00|   -4.723164|   -4.856893|   -5.507553|   -4.935452|   -4.991729|   -7.967545|    1.396653|
|        6763|  5.5145e+00|   -4.723704|   -4.857395|   -5.507815|   -4.935918|   -4.992120|   -7.965886|    1.396793|
|        6764|  5.5145e+00|   -4.724249|   -4.857902|   -5.508080|   -4.936388|   -4.992515|   -7.964233|    1.396935|
|        6765|  5.5145e+00|   -4.724800|   -4.858414|   -5.508347|   -4.936864|   -4.992915|   -7.962585|    1.397077|
|        6766|  5.5145e+00|   -4.725357|   -4.858932|   -5.508616|   -4.937345|   -4.993320|   -7.960943|    1.397219|
|        6767|  5.5145e+00|   -4.725918|   -4.859456|   -5.508885|   -4.937832|   -4.993729|   -7.959307|    1.397363|
|        6768|  5.5145e+00|   -4.726486|   -4.859985|   -5.509156|   -4.938323|   -4.994143|   -7.957677|    1.397507|
|        6769|  5.5145e+00|   -4.727058|   -4.860519|   -5.509428|   -4.938821|   -4.994562|   -7.956053|    1.397652|
|        6770|  5.5144e+00|   -4.727636|   -4.861059|   -5.509700|   -4.939323|   -4.994985|   -7.954435|    1.397798|
|        6771|  5.5144e+00|   -4.728220|   -4.861604|   -5.509974|   -4.939831|   -4.995413|   -7.952824|    1.397945|
|        6772|  5.5144e+00|   -4.728808|   -4.862155|   -5.510248|   -4.940344|   -4.995845|   -7.951219|    1.398092|
|        6773|  5.5144e+00|   -4.729402|   -4.862712|   -5.510524|   -4.940862|   -4.996282|   -7.949620|    1.398240|
|        6774|  5.5144e+00|   -4.730002|   -4.863274|   -5.510800|   -4.941385|   -4.996724|   -7.948029|    1.398388|
|        6775|  5.5144e+00|   -4.730606|   -4.863841|   -5.511077|   -4.941913|   -4.997170|   -7.946444|    1.398538|
|        6776|  5.5144e+00|   -4.731216|   -4.864413|   -5.511353|   -4.942445|   -4.997620|   -7.944867|    1.398688|
|        6777|  5.5143e+00|   -4.731829|   -4.864990|   -5.511629|   -4.942982|   -4.998073|   -7.943297|    1.398839|
|        6778|  5.5143e+00|   -4.732448|   -4.865572|   -5.511906|   -4.943524|   -4.998531|   -7.941735|    1.398990|
|        6779|  5.5143e+00|   -4.733072|   -4.866160|   -5.512183|   -4.944071|   -4.998994|   -7.940179|    1.399142|
|        6780|  5.5143e+00|   -4.733701|   -4.866754|   -5.512461|   -4.944624|   -4.999461|   -7.938631|    1.399295|
|        6781|  5.5143e+00|   -4.734336|   -4.867353|   -5.512743|   -4.945182|   -4.999933|   -7.937091|    1.399448|
|        6782|  5.5143e+00|   -4.734977|   -4.867959|   -5.513028|   -4.945745|   -5.000411|   -7.935559|    1.399603|
|        6783|  5.5143e+00|   -4.735623|   -4.868570|   -5.513314|   -4.946314|   -5.000893|   -7.934034|    1.399757|
|        6784|  5.5142e+00|   -4.736274|   -4.869186|   -5.513601|   -4.946888|   -5.001380|   -7.932517|    1.399913|
|        6785|  5.5142e+00|   -4.736931|   -4.869809|   -5.513890|   -4.947467|   -5.001871|   -7.931007|    1.400069|
|        6786|  5.5142e+00|   -4.737594|   -4.870437|   -5.514180|   -4.948052|   -5.002368|   -7.929506|    1.400226|
|        6787|  5.5142e+00|   -4.738263|   -4.871070|   -5.514472|   -4.948642|   -5.002870|   -7.928013|    1.400383|
|        6788|  5.5142e+00|   -4.738937|   -4.871710|   -5.514766|   -4.949237|   -5.003377|   -7.926527|    1.400541|
|        6789|  5.5142e+00|   -4.739616|   -4.872356|   -5.515061|   -4.949838|   -5.003889|   -7.925050|    1.400699|
|        6790|  5.5141e+00|   -4.740302|   -4.873007|   -5.515356|   -4.950445|   -5.004406|   -7.923580|    1.400859|
|        6791|  5.5141e+00|   -4.740993|   -4.873664|   -5.515653|   -4.951057|   -5.004928|   -7.922119|    1.401018|
|        6792|  5.5141e+00|   -4.741679|   -4.874319|   -5.515951|   -4.951666|   -5.005449|   -7.920666|    1.401179|
|        6793|  5.5141e+00|   -4.742368|   -4.874977|   -5.516250|   -4.952278|   -5.005973|   -7.919222|    1.401340|
|        6794|  5.5141e+00|   -4.743062|   -4.875639|   -5.516550|   -4.952894|   -5.006500|   -7.917785|    1.401501|
|        6795|  5.5141e+00|   -4.743759|   -4.876306|   -5.516850|   -4.953514|   -5.007032|   -7.916357|    1.401663|
|        6796|  5.5140e+00|   -4.744462|   -4.876978|   -5.517151|   -4.954139|   -5.007567|   -7.914937|    1.401826|
|        6797|  5.5140e+00|   -4.745169|   -4.877656|   -5.517453|   -4.954768|   -5.008106|   -7.913526|    1.401989|
|        6798|  5.5140e+00|   -4.745880|   -4.878339|   -5.517755|   -4.955402|   -5.008650|   -7.912123|    1.402153|
|        6799|  5.5140e+00|   -4.746597|   -4.879027|   -5.518057|   -4.956041|   -5.009198|   -7.910729|    1.402317|
|        6800|  5.5140e+00|   -4.747319|   -4.879720|   -5.518361|   -4.956686|   -5.009752|   -7.909343|    1.402482|
|        6801|  5.5139e+00|   -4.748047|   -4.880420|   -5.518665|   -4.957335|   -5.010310|   -7.907966|    1.402648|
|        6802|  5.5139e+00|   -4.748779|   -4.881125|   -5.518969|   -4.957990|   -5.010872|   -7.906596|    1.402814|
|        6803|  5.5139e+00|   -4.749516|   -4.881835|   -5.519274|   -4.958651|   -5.011440|   -7.905234|    1.402980|
|        6804|  5.5139e+00|   -4.750259|   -4.882551|   -5.519580|   -4.959317|   -5.012012|   -7.903880|    1.403147|
|        6805|  5.5139e+00|   -4.751008|   -4.883272|   -5.519888|   -4.959988|   -5.012589|   -7.902534|    1.403315|
|        6806|  5.5138e+00|   -4.751762|   -4.884000|   -5.520197|   -4.960666|   -5.013172|   -7.901198|    1.403483|
|        6807|  5.5138e+00|   -4.752523|   -4.884733|   -5.520507|   -4.961349|   -5.013760|   -7.899870|    1.403652|
|        6808|  5.5138e+00|   -4.753289|   -4.885472|   -5.520819|   -4.962037|   -5.014353|   -7.898551|    1.403821|
|        6809|  5.5138e+00|   -4.754059|   -4.886216|   -5.521133|   -4.962731|   -5.014950|   -7.897241|    1.403990|
|        6810|  5.5138e+00|   -4.754835|   -4.886966|   -5.521447|   -4.963430|   -5.015552|   -7.895940|    1.404161|
|        6811|  5.5137e+00|   -4.755617|   -4.887722|   -5.521761|   -4.964135|   -5.016160|   -7.894648|    1.404331|
|        6812|  5.5137e+00|   -4.756404|   -4.888485|   -5.522076|   -4.964846|   -5.016773|   -7.893365|    1.404502|
|        6813|  5.5137e+00|   -4.757198|   -4.889254|   -5.522392|   -4.965564|   -5.017392|   -7.892092|    1.404674|
|        6814|  5.5137e+00|   -4.757997|   -4.890029|   -5.522708|   -4.966287|   -5.018015|   -7.890827|    1.404846|
|        6815|  5.5137e+00|   -4.758801|   -4.890811|   -5.523025|   -4.967017|   -5.018644|   -7.889571|    1.405019|
|        6816|  5.5137e+00|   -4.759611|   -4.891599|   -5.523341|   -4.967752|   -5.019278|   -7.888325|    1.405192|
|        6817|  5.5136e+00|   -4.760426|   -4.892394|   -5.523656|   -4.968493|   -5.019916|   -7.887087|    1.405365|
|        6818|  5.5136e+00|   -4.761247|   -4.893194|   -5.523973|   -4.969240|   -5.020560|   -7.885859|    1.405539|
|        6819|  5.5136e+00|   -4.762074|   -4.894001|   -5.524291|   -4.969994|   -5.021210|   -7.884640|    1.405714|
|        6820|  5.5136e+00|   -4.762906|   -4.894814|   -5.524609|   -4.970753|   -5.021864|   -7.883430|    1.405889|
|        6821|  5.5136e+00|   -4.763744|   -4.895633|   -5.524929|   -4.971518|   -5.022524|   -7.882229|    1.406064|
|        6822|  5.5136e+00|   -4.764587|   -4.896458|   -5.525249|   -4.972289|   -5.023188|   -7.881038|    1.406240|
|        6823|  5.5136e+00|   -4.765436|   -4.897290|   -5.525570|   -4.973066|   -5.023858|   -7.879856|    1.406417|
|        6824|  5.5136e+00|   -4.766290|   -4.898127|   -5.525890|   -4.973849|   -5.024534|   -7.878682|    1.406594|
