Nodes:  tri[0010-0011]
Tasks:  128
NPN:    64
Config: /scratch/anthonyy/reentry/orion/config/generated/m6_aoa40.cfg

-------------------------------------------------------------------------
|    ___ _   _ ___                                                      |
|   / __| | | |_  )   Release 7.5.1 "Blackbird"                         |
|   \__ \ |_| |/ /                                                      |
|   |___/\___//___|   Suite (Computational Fluid Dynamics Code)         |
|                                                                       |
-------------------------------------------------------------------------
| SU2 Project Website: https://su2code.github.io                        |
|                                                                       |
| The SU2 Project is maintained by the SU2 Foundation                   |
| (http://su2foundation.org)                                            |
-------------------------------------------------------------------------
| Copyright 2012-2023, SU2 Contributors                                 |
|                                                                       |
| SU2 is free software; you can redistribute it and/or                  |
| modify it under the terms of the GNU Lesser General Public            |
| License as published by the Free Software Foundation; either          |
| version 2.1 of the License, or (at your option) any later version.    |
|                                                                       |
| SU2 is distributed in the hope that it will be useful,                |
| but WITHOUT ANY WARRANTY; without even the implied warranty of        |
| MERCHANTABILITY or FITNESS FOR A PARTICULAR PURPOSE. See the GNU      |
| Lesser General Public License for more details.                       |
|                                                                       |
| You should have received a copy of the GNU Lesser General Public      |
| License along with SU2. If not, see <http://www.gnu.org/licenses/>.   |
-------------------------------------------------------------------------

Parsing config file for zone 0

----------------- Physical Case Definition ( Zone 0 ) -------------------
Compressible RANS equations.
Turbulence model: Spalart-Allmaras-noft2
Hybrid RANS/LES: No Hybrid RANS/LES
Mach number: 6.
Angle of attack (AoA): 40 deg, and angle of sideslip (AoS): 0 deg.
Reynolds number: 6.86229e+08. Reference length 5.
Reading and writing binary SU2 native restart files.
Read flow solution from: restart_flow.dat.
Non-Dimensional simulation (V=1.0, Rho=1.0, T=1.0 at the farfield).
The reference area will be computed using y(2D) or z(3D) projection.
The semi-span will be computed using the max y(3D) value.
The reference length is 0.64607 m.
Reference origin for moment evaluation is (0.25, 0, 0).
Surface(s) where the force coefficients are evaluated: ORION_SURFACE.

Input mesh file name: ../../mesh/fine.su2

--------------- Space Numerical Integration ( Zone 0 ) ------------------
Jameson-Schmidt-Turkel scheme (2nd order in space) for the flow inviscid terms.
JST viscous coefficients (2nd & 4th): 0.5, 0.02.
The method includes a grid stretching correction (p = 0.3).
Scalar upwind solver for the turbulence model.
First order integration in space.
Average of gradients with correction (viscous flow terms).
Average of gradients with correction (viscous turbulence terms).
Gradient for upwind reconstruction: Green-Gauss.
Gradient for viscous and source terms: Green-Gauss.

--------------- Time Numerical Integration  ( Zone 0 ) ------------------
Local time stepping (steady state simulation).
Euler implicit method for the flow equations.
FGMRES is used for solving the linear system.
Using a ILU(0) preconditioning.
Convergence criteria of the linear solver: 1e-06.
Max number of linear iterations: 100.
CFL adaptation. Factor down: 0.5, factor up: 1.1,
                lower limit: 0.05, upper limit: 0.5,
                acceptable linear residual: 0.001.
Courant-Friedrichs-Lewy number:     0.03
Euler implicit time integration for the turbulence model.

------------------ Convergence Criteria  ( Zone 0 ) ---------------------
Maximum number of solver subiterations: 999999.
Begin convergence monitoring at iteration 5.
Residual minimum value: 1e-8.
Cauchy series min. value: 1e-10.
Number of Cauchy elements: 100.
Begin windowed time average at iteration 0.

-------------------- Output Information ( Zone 0 ) ----------------------
File writing frequency: 
+------------------------------------+
|                     File| Frequency|
+------------------------------------+
|                  RESTART|       150|
|                 PARAVIEW|       150|
|         SURFACE_PARAVIEW|       150|
+------------------------------------+
Writing the convergence history file every 1 inner iterations.
Writing the screen convergence history every 1 inner iterations.
The tabular file format is CSV (.csv).
Convergence history file name: history.
Forces breakdown file name: forces_breakdown.dat.
Surface file name: surface_flow.
Volume file name: flow.
Restart file name: restart_flow.

------------- Config File Boundary Information ( Zone 0 ) ---------------
+-----------------------------------------------------------------------+
|                        Marker Type|                        Marker Name|
+-----------------------------------------------------------------------+
|                          Far-field|                           FARFIELD|
+-----------------------------------------------------------------------+
|                     Heat flux wall|                      ORION_SURFACE|
+-----------------------------------------------------------------------+

-------------------- Output Preprocessing ( Zone 0 ) --------------------

WARNING: SURFACE_PRESSURE_DROP can only be computed for at least 2 surfaces (outlet, inlet, ...)

Screen output fields: INNER_ITER, WALL_TIME, RMS_DENSITY, RMS_MOMENTUM-X, RMS_MOMENTUM-Y, RMS_MOMENTUM-Z, RMS_ENERGY, RMS_NU_TILDE, DRAG
History output group(s): ITER, RMS_RES
Convergence field(s): RMS_DENSITY
Warning: No (valid) fields chosen for time convergence monitoring. Time convergence monitoring inactive.
Volume output fields: MACH, PRESSURE, TEMPERATURE, DENSITY, HEAT_FLUX, Y_PLUS, COORDINATES, SOLUTION

------------------- Geometry Preprocessing ( Zone 0 ) -------------------
Three dimensional problem.
62211324 grid points before partitioning.
190879888 volume elements before partitioning.
2 surface markers.
4104 boundary elements in index 0 (Marker = FARFIELD).
1824836 boundary elements in index 1 (Marker = ORION_SURFACE).
Executing the partitioning functions.
Building the graph adjacency structure.
Calling ParMETIS... graph partitioning complete (4959327 edge cuts).
Distributing ParMETIS coloring.
Rebalancing vertices.
Rebalancing volume element connectivity.
Rebalancing markers and surface elements.
66952290 vertices including ghost points. 
197997438 interior elements including halo cells. 
103171259 tetrahedra.
94500655 prisms.
325524 pyramids.
Establishing MPI communication patterns.
Setting point connectivity.
Renumbering points (Reverse Cuthill McKee Ordering).
Recomputing point connectivity.
Setting element connectivity.
Checking the numerical grid orientation.
All volume elements are correctly orientend.
All surface elements are correctly orientend.
Identifying edges and vertices.
Setting the control volume structure.
Volume of the computational grid: 535693.
Searching for the closest normal neighbors to the surfaces.
Storing a mapping from global to local point index.
Compute the surface curvature.
Max K: 132.896. Mean K: 3.9104. Standard deviation K: 7.49569.
Checking for periodicity.
Computing mesh quality statistics for the dual control volumes.
+--------------------------------------------------------------+
|           Mesh Quality Metric|        Minimum|        Maximum|
+--------------------------------------------------------------+
|    Orthogonality Angle (deg.)|        53.0661|             90|
|     CV Face Area Aspect Ratio|        1.01143|        75298.5|
|           CV Sub-Volume Ratio|        1.00029|        45.0258|
+--------------------------------------------------------------+
Finding max control volume width.
Communicating number of neighbors.
Reference area = 11.531 m^2.
Semi-span length = 2.49999 m.
Wetted area = 57.9072 m^2.
Area projection in the x-plane = 19.6343 m^2, y-plane = 11.531 m^2, z-plane = 11.531 m^2.
Max. coordinate in the x-direction = 2.575 m, y-direction = 2.49999 m, z-direction = 2.49999 m.
Min. coordinate in the x-direction = -0.71 m, y-direction = -2.49999 m, z-direction = -2.5 m.
Computing wall distances.

-------------------- Solver Preprocessing ( Zone 0 ) --------------------
Viscous flow: Computing pressure using the ideal gas law
based on the free-stream temperature and a density computed
from the Reynolds number.
Force coefficients computed using free-stream values.

-- Models:
+------------------------------------------------------------------------------+
|          Viscosity Model|        Conductivity Model|              Fluid Model|
+------------------------------------------------------------------------------+
|               SUTHERLAND|          CONSTANT_PRANDTL|             STANDARD_AIR|
+------------------------------------------------------------------------------+
-- Fluid properties:
+------------------------------------------------------------------------------+
|                  Name|    Dim. value|    Ref. value|      Unit|Non-dim. value|
+------------------------------------------------------------------------------+
|        Ref. Viscosity|     1.716e-05|       2455.73|   N.s/m^2|   6.98773e-09|
|      Sutherland Temp.|        273.15|        288.15|         K|      0.947944|
|     Sutherland Const.|         110.4|        288.15|         K|      0.383134|
+------------------------------------------------------------------------------+
|        Prandtl (Lam.)|             -|             -|         -|          0.72|
|       Prandtl (Turb.)|             -|             -|         -|           0.9|
+------------------------------------------------------------------------------+
|          Gas Constant|       287.058|       14467.7|  N.m/kg.K|     0.0198413|
|      Spec. Heat Ratio|             -|             -|         -|           1.4|
+------------------------------------------------------------------------------+
-- Initial and free-stream conditions:
+------------------------------------------------------------------------------+
|                  Name|    Dim. value|    Ref. value|      Unit|Non-dim. value|
+------------------------------------------------------------------------------+
|       Static Pressure|       99485.6|   5.01407e+06|        Pa|     0.0198413|
|               Density|       1.20274|       1.20274|    kg/m^3|             1|
|           Temperature|        288.15|        288.15|         K|             1|
|          Total Energy|   2.29123e+06|   4.16887e+06|   m^2/s^2|      0.549603|
|            Velocity-X|        1564.1|       2041.78|       m/s|      0.766044|
|            Velocity-Y|             0|       2041.78|       m/s|             0|
|            Velocity-Z|       1312.43|       2041.78|       m/s|      0.642788|
|    Velocity Magnitude|       2041.78|       2041.78|       m/s|             1|
+------------------------------------------------------------------------------+
|             Viscosity|    1.7893e-05|       2455.73|   N.s/m^2|    7.2862e-09|
|          Conductivity|             -|   3.55289e+07|   W/m^2.K|             -|
|     Turb. Kin. Energy|       15633.3|   4.16887e+06|   m^2/s^2|       0.00375|
|     Spec. Dissipation|   1.05085e+08|       2041.78|       1/s|       51467.1|
+------------------------------------------------------------------------------+
|           Mach Number|             -|             -|         -|             6|
|       Reynolds Number|             -|             -|         -|   6.86229e+08|
+------------------------------------------------------------------------------+
Initialize Jacobian structure (Navier-Stokes). MG level: 0.
Initialize Jacobian structure (SA model).

------------------- Numerics Preprocessing ( Zone 0 ) -------------------

----------------- Integration Preprocessing ( Zone 0 ) ------------------

------------------- Iteration Preprocessing ( Zone 0 ) ------------------
Euler/Navier-Stokes/RANS fluid iteration.

------------------------------ Begin Solver -----------------------------

Simulation Run using the Single-zone Driver
WARNING: SU2 was not compiled for an AVX-capable architecture. Performance could be better,
         see https://su2code.github.io/docs_v7/Build-SU2-Linux-MacOS/#compiler-optimizations
+--------------------------------------------------------------------------------------------------------------------+
|  Inner_Iter|   Time(sec)|    rms[Rho]|   rms[RhoU]|   rms[RhoV]|   rms[RhoW]|   rms[RhoE]|     rms[nu]|          CD|
+--------------------------------------------------------------------------------------------------------------------+
|           0|  9.1418e+00|   -4.717600|   -4.851751|   -5.504769|   -4.930684|   -4.987761|   -7.988249|    1.395036|
|           1|  8.0344e+00|   -4.717653|   -4.851795|   -5.504831|   -4.930732|   -4.987819|   -7.988056|    1.395049|
|           2|  7.5807e+00|   -4.717741|   -4.851868|   -5.504931|   -4.930810|   -4.987913|   -7.987862|    1.395063|
|           3|  7.3455e+00|   -4.717836|   -4.851947|   -5.505038|   -4.930895|   -4.988016|   -7.987648|    1.395079|
|           4|  7.2220e+00|   -4.717941|   -4.852035|   -5.505154|   -4.930988|   -4.988128|   -7.987414|    1.395096|
|           5|  7.1204e+00|   -4.718055|   -4.852131|   -5.505279|   -4.931090|   -4.988250|   -7.987155|    1.395115|
|           6|  7.0539e+00|   -4.718180|   -4.852236|   -5.505413|   -4.931202|   -4.988383|   -7.986871|    1.395136|
|           7|  6.9946e+00|   -4.718317|   -4.852352|   -5.505556|   -4.931324|   -4.988528|   -7.986558|    1.395159|
|           8|  6.9539e+00|   -4.718466|   -4.852479|   -5.505710|   -4.931458|   -4.988685|   -7.986214|    1.395185|
|           9|  6.9310e+00|   -4.718629|   -4.852619|   -5.505873|   -4.931604|   -4.988856|   -7.985836|    1.395213|
|          10|  6.9144e+00|   -4.718806|   -4.852772|   -5.506047|   -4.931764|   -4.989041|   -7.985420|    1.395243|
|          11|  6.9650e+00|   -4.719000|   -4.852939|   -5.506231|   -4.931938|   -4.989242|   -7.984962|    1.395277|
|          12|  7.0093e+00|   -4.719211|   -4.853123|   -5.506425|   -4.932128|   -4.989459|   -7.984458|    1.395315|
|          13|  7.0386e+00|   -4.719440|   -4.853324|   -5.506628|   -4.932335|   -4.989693|   -7.983905|    1.395356|
|          14|  7.0930e+00|   -4.719689|   -4.853545|   -5.506840|   -4.932561|   -4.989946|   -7.983296|    1.395401|
|          15|  7.1328e+00|   -4.719960|   -4.853785|   -5.507060|   -4.932806|   -4.990217|   -7.982626|    1.395452|
|          16|  7.1604e+00|   -4.720253|   -4.854048|   -5.507286|   -4.933071|   -4.990509|   -7.981890|    1.395507|
|          17|  7.1808e+00|   -4.720571|   -4.854334|   -5.507518|   -4.933359|   -4.990820|   -7.981081|    1.395568|
|          18|  7.2027e+00|   -4.720913|   -4.854646|   -5.507752|   -4.933670|   -4.991151|   -7.980191|    1.395636|
|          19|  7.2165e+00|   -4.721283|   -4.854984|   -5.507987|   -4.934005|   -4.991503|   -7.979213|    1.395710|
|          20|  7.2328e+00|   -4.721679|   -4.855350|   -5.508218|   -4.934364|   -4.991873|   -7.978139|    1.395792|
|          21|  7.2812e+00|   -4.722104|   -4.855745|   -5.508444|   -4.934749|   -4.992261|   -7.976959|    1.395883|
|          22|  7.3228e+00|   -4.722557|   -4.856170|   -5.508658|   -4.935158|   -4.992664|   -7.975663|    1.395984|
|          23|  7.3583e+00|   -4.723037|   -4.856624|   -5.508855|   -4.935590|   -4.993077|   -7.974241|    1.396095|
|          24|  7.3900e+00|   -4.723543|   -4.857107|   -5.509030|   -4.936044|   -4.993497|   -7.972679|    1.396218|
|          25|  7.4238e+00|   -4.724073|   -4.857615|   -5.509175|   -4.936516|   -4.993914|   -7.970967|    1.396355|
|          26|  7.4578e+00|   -4.724622|   -4.858146|   -5.509283|   -4.937001|   -4.994319|   -7.969283|    1.396494|
|          27|  7.4912e+00|   -4.725172|   -4.858678|   -5.509394|   -4.937485|   -4.994716|   -7.967616|    1.396634|
|          28|  7.5333e+00|   -4.725720|   -4.859205|   -5.509518|   -4.937965|   -4.995107|   -7.965955|    1.396774|
|          29|  7.5636e+00|   -4.726266|   -4.859728|   -5.509654|   -4.938441|   -4.995492|   -7.964301|    1.396916|
|          30|  7.5896e+00|   -4.726811|   -4.860249|   -5.509802|   -4.938914|   -4.995872|   -7.962653|    1.397058|
|          31|  7.6111e+00|   -4.727355|   -4.860766|   -5.509960|   -4.939385|   -4.996247|   -7.961011|    1.397201|
|          32|  7.6321e+00|   -4.727897|   -4.861282|   -5.510128|   -4.939853|   -4.996618|   -7.959376|    1.397345|
|          33|  7.6491e+00|   -4.728438|   -4.861795|   -5.510305|   -4.940319|   -4.996984|   -7.957747|    1.397489|
|          34|  7.6711e+00|   -4.728978|   -4.862307|   -5.510491|   -4.940784|   -4.997347|   -7.956125|    1.397634|
|          35|  7.6954e+00|   -4.729518|   -4.862818|   -5.510685|   -4.941247|   -4.997707|   -7.954509|    1.397780|
|          36|  7.7165e+00|   -4.730059|   -4.863328|   -5.510887|   -4.941711|   -4.998066|   -7.952900|    1.397927|
|          37|  7.7343e+00|   -4.730599|   -4.863839|   -5.511098|   -4.942174|   -4.998423|   -7.951298|    1.398074|
|          38|  7.7492e+00|   -4.731141|   -4.864350|   -5.511315|   -4.942638|   -4.998779|   -7.949702|    1.398222|
|          39|  7.7638e+00|   -4.731685|   -4.864862|   -5.511538|   -4.943103|   -4.999135|   -7.948113|    1.398371|
|          40|  7.7769e+00|   -4.732230|   -4.865376|   -5.511768|   -4.943570|   -4.999492|   -7.946532|    1.398520|
|          41|  7.7940e+00|   -4.732777|   -4.865892|   -5.512002|   -4.944038|   -4.999850|   -7.944957|    1.398670|
|          42|  7.8163e+00|   -4.733326|   -4.866410|   -5.512241|   -4.944508|   -5.000209|   -7.943390|    1.398821|
|          43|  7.8326e+00|   -4.733879|   -4.866932|   -5.512485|   -4.944982|   -5.000571|   -7.941830|    1.398972|
|          44|  7.8456e+00|   -4.734435|   -4.867457|   -5.512733|   -4.945460|   -5.000937|   -7.940277|    1.399124|
|          45|  7.8574e+00|   -4.734996|   -4.867988|   -5.512987|   -4.945942|   -5.001307|   -7.938732|    1.399277|
|          46|  7.8677e+00|   -4.735562|   -4.868523|   -5.513248|   -4.946430|   -5.001682|   -7.937195|    1.399430|
|          47|  7.8763e+00|   -4.736133|   -4.869065|   -5.513514|   -4.946923|   -5.002063|   -7.935664|    1.399584|
|          48|  7.8852e+00|   -4.736709|   -4.869612|   -5.513784|   -4.947422|   -5.002449|   -7.934142|    1.399739|
|          49|  7.8938e+00|   -4.737292|   -4.870165|   -5.514059|   -4.947926|   -5.002842|   -7.932627|    1.399894|
|          50|  7.9025e+00|   -4.737881|   -4.870724|   -5.514337|   -4.948437|   -5.003241|   -7.931120|    1.400050|
|          51|  7.9096e+00|   -4.738477|   -4.871290|   -5.514619|   -4.948955|   -5.003647|   -7.929621|    1.400207|
|          52|  7.9193e+00|   -4.739080|   -4.871863|   -5.514904|   -4.949480|   -5.004061|   -7.928129|    1.400364|
|          53|  7.9269e+00|   -4.739689|   -4.872443|   -5.515193|   -4.950012|   -5.004483|   -7.926646|    1.400522|
|          54|  7.9360e+00|   -4.740307|   -4.873031|   -5.515484|   -4.950551|   -5.004912|   -7.925170|    1.400681|
|          55|  7.9439e+00|   -4.740931|   -4.873626|   -5.515777|   -4.951098|   -5.005350|   -7.923702|    1.400840|
|          56|  7.9508e+00|   -4.741562|   -4.874229|   -5.516073|   -4.951652|   -5.005795|   -7.922242|    1.401000|
|          57|  7.9574e+00|   -4.742189|   -4.874829|   -5.516370|   -4.952203|   -5.006242|   -7.920791|    1.401160|
|          58|  7.9652e+00|   -4.742824|   -4.875437|   -5.516669|   -4.952762|   -5.006696|   -7.919347|    1.401321|
|          59|  7.9697e+00|   -4.743464|   -4.876050|   -5.516969|   -4.953326|   -5.007156|   -7.917912|    1.401482|
|          60|  7.9756e+00|   -4.744111|   -4.876671|   -5.517271|   -4.953898|   -5.007624|   -7.916485|    1.401644|
|          61|  7.9792e+00|   -4.744765|   -4.877298|   -5.517574|   -4.954476|   -5.008100|   -7.915066|    1.401807|
|          62|  7.9832e+00|   -4.745426|   -4.877933|   -5.517877|   -4.955061|   -5.008582|   -7.913656|    1.401970|
|          63|  7.9867e+00|   -4.746094|   -4.878575|   -5.518181|   -4.955653|   -5.009072|   -7.912254|    1.402134|
|          64|  7.9928e+00|   -4.746769|   -4.879225|   -5.518486|   -4.956252|   -5.009570|   -7.910860|    1.402298|
|          65|  7.9991e+00|   -4.747451|   -4.879881|   -5.518792|   -4.956858|   -5.010075|   -7.909474|    1.402463|
|          66|  8.0024e+00|   -4.748141|   -4.880545|   -5.519098|   -4.957472|   -5.010588|   -7.908097|    1.402629|
|          67|  8.0067e+00|   -4.748838|   -4.881217|   -5.519404|   -4.958093|   -5.011108|   -7.906729|    1.402795|
|          68|  8.0096e+00|   -4.749542|   -4.881895|   -5.519711|   -4.958721|   -5.011636|   -7.905366|    1.402961|
|          69|  8.0134e+00|   -4.750254|   -4.882581|   -5.520019|   -4.959356|   -5.012171|   -7.904012|    1.403128|
|          70|  8.0168e+00|   -4.750973|   -4.883274|   -5.520327|   -4.959999|   -5.012713|   -7.902667|    1.403296|
|          71|  8.0256e+00|   -4.751701|   -4.883974|   -5.520638|   -4.960649|   -5.013264|   -7.901330|    1.403464|
|          72|  8.0316e+00|   -4.752435|   -4.884682|   -5.520949|   -4.961307|   -5.013822|   -7.900003|    1.403632|
|          73|  8.0377e+00|   -4.753178|   -4.885398|   -5.521262|   -4.961972|   -5.014387|   -7.898683|    1.403801|
|          74|  8.0425e+00|   -4.753926|   -4.886119|   -5.521575|   -4.962643|   -5.014958|   -7.897373|    1.403971|
|          75|  8.0446e+00|   -4.754682|   -4.886848|   -5.521890|   -4.963321|   -5.015537|   -7.896072|    1.404141|
|          76|  8.0480e+00|   -4.755446|   -4.887584|   -5.522204|   -4.964007|   -5.016123|   -7.894779|    1.404312|
|          77|  8.0540e+00|   -4.756217|   -4.888329|   -5.522518|   -4.964701|   -5.016716|   -7.893496|    1.404483|
|          78|  8.0584e+00|   -4.756995|   -4.889081|   -5.522833|   -4.965402|   -5.017316|   -7.892221|    1.404654|
|          79|  8.0609e+00|   -4.757781|   -4.889841|   -5.523149|   -4.966111|   -5.017923|   -7.890956|    1.404826|
|          80|  8.0624e+00|   -4.758574|   -4.890609|   -5.523464|   -4.966827|   -5.018537|   -7.889699|    1.404999|
|          81|  8.0660e+00|   -4.759373|   -4.891384|   -5.523778|   -4.967550|   -5.019157|   -7.888452|    1.405172|
|          82|  8.0692e+00|   -4.760180|   -4.892167|   -5.524091|   -4.968280|   -5.019784|   -7.887213|    1.405346|
|          83|  8.0731e+00|   -4.760993|   -4.892957|   -5.524406|   -4.969018|   -5.020418|   -7.885984|    1.405520|
|          84|  8.0768e+00|   -4.761814|   -4.893756|   -5.524722|   -4.969764|   -5.021059|   -7.884764|    1.405694|
|          85|  8.0802e+00|   -4.762643|   -4.894561|   -5.525038|   -4.970516|   -5.021706|   -7.883553|    1.405869|
|          86|  8.0830e+00|   -4.763477|   -4.895374|   -5.525354|   -4.971276|   -5.022360|   -7.882351|    1.406044|
|          87|  8.0876e+00|   -4.764318|   -4.896194|   -5.525671|   -4.972043|   -5.023020|   -7.881158|    1.406220|
|          88|  8.0917e+00|   -4.765167|   -4.897021|   -5.525989|   -4.972817|   -5.023686|   -7.879974|    1.406397|
|          89|  8.0939e+00|   -4.766022|   -4.897856|   -5.526306|   -4.973598|   -5.024359|   -7.878800|    1.406573|
|          90|  8.0976e+00|   -4.766884|   -4.898699|   -5.526623|   -4.974387|   -5.025039|   -7.877635|    1.406751|
|          91|  8.1065e+00|   -4.767752|   -4.899550|   -5.526940|   -4.975183|   -5.025725|   -7.876479|    1.406928|
|          92|  8.1095e+00|   -4.768627|   -4.900408|   -5.527256|   -4.975986|   -5.026416|   -7.875332|    1.407107|
|          93|  8.1119e+00|   -4.769507|   -4.901274|   -5.527572|   -4.976795|   -5.027113|   -7.874194|    1.407285|
|          94|  8.1149e+00|   -4.770392|   -4.902147|   -5.527886|   -4.977611|   -5.027816|   -7.873065|    1.407464|
|          95|  8.1161e+00|   -4.771284|   -4.903028|   -5.528201|   -4.978434|   -5.028525|   -7.871945|    1.407644|
|          96|  8.1176e+00|   -4.772182|   -4.903917|   -5.528516|   -4.979264|   -5.029239|   -7.870835|    1.407824|
|          97|  8.1193e+00|   -4.773083|   -4.904810|   -5.528829|   -4.980099|   -5.029957|   -7.869733|    1.408004|
|          98|  8.1210e+00|   -4.773987|   -4.905706|   -5.529136|   -4.980937|   -5.030677|   -7.868641|    1.408185|
|          99|  8.1242e+00|   -4.774897|   -4.906610|   -5.529443|   -4.981782|   -5.031402|   -7.867558|    1.408367|
|         100|  8.1268e+00|   -4.775811|   -4.907520|   -5.529749|   -4.982633|   -5.032133|   -7.866485|    1.408548|
|         101|  8.1282e+00|   -4.776729|   -4.908436|   -5.530052|   -4.983488|   -5.032867|   -7.865421|    1.408730|
|         102|  8.1303e+00|   -4.777652|   -4.909358|   -5.530356|   -4.984349|   -5.033606|   -7.864366|    1.408913|
|         103|  8.1321e+00|   -4.778581|   -4.910287|   -5.530661|   -4.985215|   -5.034350|   -7.863321|    1.409096|
|         104|  8.1329e+00|   -4.779515|   -4.911223|   -5.530966|   -4.986088|   -5.035099|   -7.862285|    1.409280|
|         105|  8.1328e+00|   -4.780455|   -4.912165|   -5.531272|   -4.986966|   -5.035854|   -7.861258|    1.409464|
|         106|  8.1347e+00|   -4.781400|   -4.913113|   -5.531578|   -4.987850|   -5.036613|   -7.860241|    1.409648|
|         107|  8.1370e+00|   -4.782351|   -4.914067|   -5.531885|   -4.988740|   -5.037378|   -7.859233|    1.409833|
|         108|  8.1393e+00|   -4.783308|   -4.915028|   -5.532192|   -4.989635|   -5.038148|   -7.858234|    1.410018|
|         109|  8.1406e+00|   -4.784270|   -4.915994|   -5.532500|   -4.990537|   -5.038924|   -7.857244|    1.410203|
|         110|  8.1416e+00|   -4.785238|   -4.916967|   -5.532808|   -4.991445|   -5.039704|   -7.856264|    1.410389|
|         111|  8.1432e+00|   -4.786212|   -4.917946|   -5.533117|   -4.992357|   -5.040490|   -7.855293|    1.410576|
|         112|  8.1438e+00|   -4.787191|   -4.918931|   -5.533425|   -4.993276|   -5.041281|   -7.854331|    1.410763|
|         113|  8.1451e+00|   -4.788175|   -4.919921|   -5.533733|   -4.994200|   -5.042075|   -7.853378|    1.410950|
|         114|  8.1487e+00|   -4.789164|   -4.920917|   -5.534041|   -4.995129|   -5.042875|   -7.852434|    1.411137|
|         115|  8.1509e+00|   -4.790159|   -4.921920|   -5.534350|   -4.996064|   -5.043679|   -7.851499|    1.411325|
|         116|  8.1540e+00|   -4.791159|   -4.922929|   -5.534659|   -4.997004|   -5.044489|   -7.850573|    1.411514|
|         117|  8.1552e+00|   -4.792164|   -4.923943|   -5.534968|   -4.997950|   -5.045303|   -7.849656|    1.411702|
|         118|  8.1553e+00|   -4.793175|   -4.924964|   -5.535276|   -4.998901|   -5.046122|   -7.848748|    1.411892|
|         119|  8.1557e+00|   -4.794192|   -4.925991|   -5.535585|   -4.999858|   -5.046946|   -7.847850|    1.412081|
|         120|  8.1577e+00|   -4.795213|   -4.927023|   -5.535889|   -5.000820|   -5.047774|   -7.846960|    1.412271|
|         121|  8.1594e+00|   -4.796239|   -4.928061|   -5.536192|   -5.001788|   -5.048607|   -7.846079|    1.412461|
|         122|  8.1604e+00|   -4.797271|   -4.929105|   -5.536493|   -5.002761|   -5.049445|   -7.845208|    1.412652|
|         123|  8.1617e+00|   -4.798309|   -4.930155|   -5.536795|   -5.003740|   -5.050288|   -7.844346|    1.412843|
|         124|  8.1624e+00|   -4.799351|   -4.931210|   -5.537095|   -5.004725|   -5.051135|   -7.843492|    1.413034|
|         125|  8.1628e+00|   -4.800399|   -4.932272|   -5.537393|   -5.005714|   -5.051987|   -7.842647|    1.413226|
|         126|  8.1633e+00|   -4.801451|   -4.933339|   -5.537690|   -5.006709|   -5.052843|   -7.841810|    1.413418|
|         127|  8.1647e+00|   -4.802508|   -4.934412|   -5.537985|   -5.007710|   -5.053704|   -7.840982|    1.413610|
|         128|  8.1666e+00|   -4.803569|   -4.935490|   -5.538278|   -5.008715|   -5.054569|   -7.840162|    1.413803|
|         129|  8.1689e+00|   -4.804634|   -4.936574|   -5.538568|   -5.009725|   -5.055437|   -7.839351|    1.413996|
|         130|  8.1705e+00|   -4.805703|   -4.937664|   -5.538855|   -5.010739|   -5.056309|   -7.838548|    1.414190|
|         131|  8.1719e+00|   -4.806776|   -4.938758|   -5.539139|   -5.011759|   -5.057185|   -7.837754|    1.414383|
|         132|  8.1727e+00|   -4.807853|   -4.939859|   -5.539422|   -5.012783|   -5.058066|   -7.836968|    1.414577|
|         133|  8.1730e+00|   -4.808933|   -4.940964|   -5.539701|   -5.013812|   -5.058949|   -7.836191|    1.414772|
|         134|  8.1737e+00|   -4.810018|   -4.942074|   -5.539979|   -5.014845|   -5.059837|   -7.835422|    1.414966|
|         135|  8.1735e+00|   -4.811105|   -4.943190|   -5.540253|   -5.015883|   -5.060728|   -7.834661|    1.415162|
|         136|  8.1749e+00|   -4.812195|   -4.944310|   -5.540526|   -5.016925|   -5.061622|   -7.833909|    1.415357|
|         137|  8.1769e+00|   -4.813288|   -4.945435|   -5.540798|   -5.017971|   -5.062519|   -7.833165|    1.415553|
|         138|  8.1773e+00|   -4.814386|   -4.946566|   -5.541071|   -5.019021|   -5.063421|   -7.832429|    1.415749|
|         139|  8.1783e+00|   -4.815487|   -4.947700|   -5.541342|   -5.020076|   -5.064326|   -7.831701|    1.415945|
|         140|  8.1785e+00|   -4.816591|   -4.948840|   -5.541611|   -5.021135|   -5.065235|   -7.830982|    1.416141|
|         141|  8.1794e+00|   -4.817698|   -4.949984|   -5.541879|   -5.022198|   -5.066147|   -7.830271|    1.416338|
|         142|  8.1800e+00|   -4.818808|   -4.951132|   -5.542145|   -5.023265|   -5.067063|   -7.829568|    1.416536|
|         143|  8.1807e+00|   -4.819921|   -4.952286|   -5.542408|   -5.024336|   -5.067982|   -7.828873|    1.416733|
|         144|  8.1824e+00|   -4.821036|   -4.953443|   -5.542668|   -5.025409|   -5.068903|   -7.828186|    1.416931|
|         145|  8.1834e+00|   -4.822153|   -4.954604|   -5.542926|   -5.026486|   -5.069826|   -7.827507|    1.417129|
|         146|  8.1844e+00|   -4.823272|   -4.955769|   -5.543181|   -5.027566|   -5.070753|   -7.826836|    1.417327|
|         147|  8.1854e+00|   -4.824392|   -4.956939|   -5.543433|   -5.028649|   -5.071681|   -7.826173|    1.417526|
|         148|  8.1863e+00|   -4.825514|   -4.958112|   -5.543683|   -5.029735|   -5.072612|   -7.825518|    1.417725|
|         149|  8.1872e+00|   -4.826638|   -4.959289|   -5.543931|   -5.030824|   -5.073545|   -7.824872|    1.417925|
|         150|  8.1873e+00|   -4.827764|   -4.960470|   -5.544177|   -5.031915|   -5.074480|   -7.824233|    1.418124|
+-----------------------------------------------------------------------+
|        File Writing Summary       |              Filename             |
+-----------------------------------------------------------------------+
|SU2 binary restart                 |restart_flow.dat                   |
|Paraview                           |flow.vtu                           |
|Paraview surface                   |surface_flow.vtu                   |
+-----------------------------------------------------------------------+
+--------------------------------------------------------------------------------------------------------------------+
|  Inner_Iter|   Time(sec)|    rms[Rho]|   rms[RhoU]|   rms[RhoV]|   rms[RhoW]|   rms[RhoE]|     rms[nu]|          CD|
+--------------------------------------------------------------------------------------------------------------------+
|         151|  8.3432e+00|   -4.828891|   -4.961654|   -5.544420|   -5.033009|   -5.075417|   -7.823602|    1.418324|
|         152|  8.3446e+00|   -4.830019|   -4.962843|   -5.544661|   -5.034105|   -5.076357|   -7.822980|    1.418525|
|         153|  8.3458e+00|   -4.831149|   -4.964034|   -5.544898|   -5.035204|   -5.077299|   -7.822365|    1.418725|
|         154|  8.3480e+00|   -4.832279|   -4.965229|   -5.545132|   -5.036305|   -5.078242|   -7.821758|    1.418926|
|         155|  8.3487e+00|   -4.833410|   -4.966427|   -5.545364|   -5.037407|   -5.079187|   -7.821158|    1.419127|
|         156|  8.3470e+00|   -4.834543|   -4.967629|   -5.545594|   -5.038512|   -5.080133|   -7.820567|    1.419329|
|         157|  8.3446e+00|   -4.835677|   -4.968833|   -5.545824|   -5.039620|   -5.081082|   -7.819983|    1.419531|
|         158|  8.3417e+00|   -4.836812|   -4.970039|   -5.546052|   -5.040730|   -5.082033|   -7.819407|    1.419733|
|         159|  8.3398e+00|   -4.837947|   -4.971249|   -5.546278|   -5.041841|   -5.082986|   -7.818839|    1.419936|
|         160|  8.3376e+00|   -4.839084|   -4.972462|   -5.546501|   -5.042955|   -5.083939|   -7.818279|    1.420138|
|         161|  8.3351e+00|   -4.840220|   -4.973677|   -5.546721|   -5.044070|   -5.084894|   -7.817726|    1.420342|
|         162|  8.3336e+00|   -4.841356|   -4.974894|   -5.546939|   -5.045186|   -5.085850|   -7.817181|    1.420545|
|         163|  8.3307e+00|   -4.842493|   -4.976114|   -5.547156|   -5.046304|   -5.086807|   -7.816644|    1.420749|
|         164|  8.3286e+00|   -4.843629|   -4.977335|   -5.547370|   -5.047423|   -5.087765|   -7.816114|    1.420953|
|         165|  8.3264e+00|   -4.844764|   -4.978559|   -5.547582|   -5.048543|   -5.088724|   -7.815593|    1.421158|
|         166|  8.3241e+00|   -4.845899|   -4.979784|   -5.547792|   -5.049665|   -5.089684|   -7.815078|    1.421363|
|         167|  8.3214e+00|   -4.847034|   -4.981011|   -5.548000|   -5.050788|   -5.090644|   -7.814572|    1.421568|
|         168|  8.3187e+00|   -4.848167|   -4.982240|   -5.548206|   -5.051911|   -5.091604|   -7.814072|    1.421774|
|         169|  8.3173e+00|   -4.849300|   -4.983470|   -5.548410|   -5.053036|   -5.092565|   -7.813581|    1.421980|
|         170|  8.3157e+00|   -4.850431|   -4.984702|   -5.548610|   -5.054161|   -5.093526|   -7.813097|    1.422186|
|         171|  8.3134e+00|   -4.851562|   -4.985934|   -5.548808|   -5.055287|   -5.094488|   -7.812620|    1.422393|
|         172|  8.3107e+00|   -4.852691|   -4.987168|   -5.549003|   -5.056413|   -5.095450|   -7.812151|    1.422600|
|         173|  8.3088e+00|   -4.853820|   -4.988403|   -5.549198|   -5.057539|   -5.096413|   -7.811690|    1.422807|
|         174|  8.3077e+00|   -4.854948|   -4.989639|   -5.549391|   -5.058666|   -5.097376|   -7.811235|    1.423015|
|         175|  8.3074e+00|   -4.856074|   -4.990877|   -5.549580|   -5.059794|   -5.098340|   -7.810789|    1.423223|
|         176|  8.3066e+00|   -4.857199|   -4.992118|   -5.549770|   -5.060924|   -5.099308|   -7.810349|    1.423432|
|         177|  8.3061e+00|   -4.858324|   -4.993360|   -5.549959|   -5.062053|   -5.100276|   -7.809917|    1.423640|
|         178|  8.3047e+00|   -4.859447|   -4.994602|   -5.550148|   -5.063183|   -5.101244|   -7.809492|    1.423850|
|         179|  8.3034e+00|   -4.860569|   -4.995845|   -5.550335|   -5.064312|   -5.102212|   -7.809075|    1.424059|
|         180|  8.3022e+00|   -4.861689|   -4.997087|   -5.550521|   -5.065443|   -5.103181|   -7.808664|    1.424269|
|         181|  8.3007e+00|   -4.862808|   -4.998329|   -5.550707|   -5.066573|   -5.104150|   -7.808261|    1.424480|
|         182|  8.2993e+00|   -4.863926|   -4.999571|   -5.550893|   -5.067703|   -5.105120|   -7.807865|    1.424691|
|         183|  8.2974e+00|   -4.865043|   -5.000813|   -5.551077|   -5.068832|   -5.106090|   -7.807476|    1.424902|
|         184|  8.2976e+00|   -4.866157|   -5.002054|   -5.551258|   -5.069962|   -5.107060|   -7.807094|    1.425113|
|         185|  8.2964e+00|   -4.867270|   -5.003294|   -5.551438|   -5.071090|   -5.108029|   -7.806719|    1.425325|
|         186|  8.2953e+00|   -4.868380|   -5.004533|   -5.551614|   -5.072219|   -5.108998|   -7.806351|    1.425537|
|         187|  8.2932e+00|   -4.869487|   -5.005771|   -5.551787|   -5.073346|   -5.109966|   -7.805991|    1.425750|
|         188|  8.2916e+00|   -4.870592|   -5.007008|   -5.551957|   -5.074471|   -5.110933|   -7.805637|    1.425963|
|         189|  8.2899e+00|   -4.871694|   -5.008244|   -5.552126|   -5.075596|   -5.111899|   -7.805291|    1.426176|
|         190|  8.2883e+00|   -4.872793|   -5.009479|   -5.552292|   -5.076719|   -5.112864|   -7.804952|    1.426390|
|         191|  8.2858e+00|   -4.873887|   -5.010713|   -5.552455|   -5.077841|   -5.113828|   -7.804619|    1.426604|
|         192|  8.2837e+00|   -4.874979|   -5.011945|   -5.552617|   -5.078961|   -5.114791|   -7.804294|    1.426818|
|         193|  8.2826e+00|   -4.876065|   -5.013175|   -5.552774|   -5.080078|   -5.115752|   -7.803975|    1.427033|
|         194|  8.2804e+00|   -4.877149|   -5.014403|   -5.552927|   -5.081194|   -5.116711|   -7.803664|    1.427248|
|         195|  8.2782e+00|   -4.878228|   -5.015629|   -5.553076|   -5.082308|   -5.117669|   -7.803359|    1.427463|
|         196|  8.2759e+00|   -4.879302|   -5.016853|   -5.553221|   -5.083419|   -5.118625|   -7.803059|    1.427679|
|         197|  8.2744e+00|   -4.880372|   -5.018075|   -5.553364|   -5.084528|   -5.119579|   -7.802766|    1.427895|
|         198|  8.2731e+00|   -4.881437|   -5.019295|   -5.553504|   -5.085634|   -5.120532|   -7.802478|    1.428111|
|         199|  8.2723e+00|   -4.882497|   -5.020511|   -5.553639|   -5.086737|   -5.121482|   -7.802195|    1.428327|
|         200|  8.2715e+00|   -4.883550|   -5.021724|   -5.553767|   -5.087835|   -5.122428|   -7.801919|    1.428544|
|         201|  8.2710e+00|   -4.884597|   -5.022934|   -5.553892|   -5.088931|   -5.123372|   -7.801649|    1.428761|
|         202|  8.2694e+00|   -4.885638|   -5.024140|   -5.554015|   -5.090023|   -5.124313|   -7.801385|    1.428978|
|         203|  8.2683e+00|   -4.886673|   -5.025343|   -5.554135|   -5.091111|   -5.125252|   -7.801128|    1.429196|
|         204|  8.2709e+00|   -4.887702|   -5.026541|   -5.554253|   -5.092195|   -5.126189|   -7.800878|    1.429413|
|         205|  8.2711e+00|   -4.888725|   -5.027736|   -5.554369|   -5.093276|   -5.127123|   -7.800634|    1.429631|
|         206|  8.2711e+00|   -4.889742|   -5.028927|   -5.554484|   -5.094352|   -5.128054|   -7.800396|    1.429849|
|         207|  8.2695e+00|   -4.890750|   -5.030112|   -5.554596|   -5.095423|   -5.128980|   -7.800165|    1.430067|
|         208|  8.2684e+00|   -4.891752|   -5.031294|   -5.554705|   -5.096489|   -5.129904|   -7.799941|    1.430286|
|         209|  8.2678e+00|   -4.892746|   -5.032470|   -5.554812|   -5.097551|   -5.130825|   -7.799723|    1.430505|
|         210|  8.2670e+00|   -4.893732|   -5.033641|   -5.554916|   -5.098607|   -5.131742|   -7.799512|    1.430723|
|         211|  8.2654e+00|   -4.894710|   -5.034807|   -5.555016|   -5.099658|   -5.132654|   -7.799307|    1.430942|
|         212|  8.2643e+00|   -4.895678|   -5.035967|   -5.555111|   -5.100702|   -5.133562|   -7.799109|    1.431161|
|         213|  8.2636e+00|   -4.896638|   -5.037121|   -5.555202|   -5.101740|   -5.134465|   -7.798918|    1.431380|
|         214|  8.2650e+00|   -4.897588|   -5.038269|   -5.555289|   -5.102772|   -5.135364|   -7.798733|    1.431600|
|         215|  8.2646e+00|   -4.898530|   -5.039411|   -5.555373|   -5.103797|   -5.136258|   -7.798554|    1.431819|
|         216|  8.2635e+00|   -4.899463|   -5.040546|   -5.555453|   -5.104816|   -5.137148|   -7.798381|    1.432039|
|         217|  8.2624e+00|   -4.900388|   -5.041675|   -5.555531|   -5.105828|   -5.138035|   -7.798214|    1.432258|
|         218|  8.2617e+00|   -4.901302|   -5.042796|   -5.555604|   -5.106834|   -5.138916|   -7.798054|    1.432478|
|         219|  8.2606e+00|   -4.902207|   -5.043910|   -5.555674|   -5.107831|   -5.139792|   -7.797899|    1.432697|
|         220|  8.2619e+00|   -4.903102|   -5.045017|   -5.555741|   -5.108822|   -5.140663|   -7.797751|    1.432917|
|         221|  8.2615e+00|   -4.903987|   -5.046116|   -5.555805|   -5.109806|   -5.141530|   -7.797609|    1.433137|
|         222|  8.2605e+00|   -4.904862|   -5.047206|   -5.555863|   -5.110782|   -5.142390|   -7.797473|    1.433356|
|         223|  8.2595e+00|   -4.905725|   -5.048287|   -5.555915|   -5.111750|   -5.143245|   -7.797344|    1.433576|
|         224|  8.2583e+00|   -4.906576|   -5.049359|   -5.555961|   -5.112710|   -5.144094|   -7.797220|    1.433796|
|         225|  8.2570e+00|   -4.907417|   -5.050422|   -5.556004|   -5.113661|   -5.144937|   -7.797103|    1.434016|
|         226|  8.2555e+00|   -4.908246|   -5.051475|   -5.556042|   -5.114605|   -5.145773|   -7.796992|    1.434235|
|         227|  8.2539e+00|   -4.909064|   -5.052517|   -5.556074|   -5.115539|   -5.146604|   -7.796887|    1.434455|
|         228|  8.2532e+00|   -4.909871|   -5.053550|   -5.556103|   -5.116466|   -5.147429|   -7.796787|    1.434675|
|         229|  8.2538e+00|   -4.910666|   -5.054573|   -5.556126|   -5.117384|   -5.148247|   -7.796694|    1.434894|
|         230|  8.2527e+00|   -4.911447|   -5.055584|   -5.556144|   -5.118293|   -5.149057|   -7.796608|    1.435114|
|         231|  8.2514e+00|   -4.912215|   -5.056583|   -5.556154|   -5.119191|   -5.149860|   -7.796527|    1.435333|
|         232|  8.2503e+00|   -4.912969|   -5.057570|   -5.556161|   -5.120080|   -5.150655|   -7.796452|    1.435553|
|         233|  8.2493e+00|   -4.913709|   -5.058546|   -5.556162|   -5.120958|   -5.151442|   -7.796383|    1.435772|
|         234|  8.2481e+00|   -4.914432|   -5.059508|   -5.556155|   -5.121824|   -5.152219|   -7.796320|    1.435992|
|         235|  8.2465e+00|   -4.915140|   -5.060458|   -5.556144|   -5.122678|   -5.152987|   -7.796263|    1.436211|
|         236|  8.2451e+00|   -4.915832|   -5.061395|   -5.556128|   -5.123521|   -5.153746|   -7.796213|    1.436430|
|         237|  8.2438e+00|   -4.916509|   -5.062318|   -5.556109|   -5.124351|   -5.154496|   -7.796168|    1.436649|
|         238|  8.2425e+00|   -4.917170|   -5.063227|   -5.556086|   -5.125170|   -5.155237|   -7.796130|    1.436868|
|         239|  8.2410e+00|   -4.917815|   -5.064123|   -5.556059|   -5.125975|   -5.155968|   -7.796098|    1.437087|
|         240|  8.2395e+00|   -4.918445|   -5.065003|   -5.556028|   -5.126768|   -5.156690|   -7.796073|    1.437306|
|         241|  8.2381e+00|   -4.919059|   -5.065870|   -5.555994|   -5.127549|   -5.157404|   -7.796053|    1.437525|
|         242|  8.2372e+00|   -4.919659|   -5.066721|   -5.555959|   -5.128317|   -5.158109|   -7.796040|    1.437744|
|         243|  8.2366e+00|   -4.920243|   -5.067556|   -5.555920|   -5.129072|   -5.158804|   -7.796034|    1.437962|
|         244|  8.2379e+00|   -4.920810|   -5.068376|   -5.555878|   -5.129813|   -5.159489|   -7.796034|    1.438181|
|         245|  8.2378e+00|   -4.921361|   -5.069180|   -5.555831|   -5.130541|   -5.160164|   -7.796041|    1.438399|
|         246|  8.2366e+00|   -4.921896|   -5.069968|   -5.555779|   -5.131255|   -5.160828|   -7.796054|    1.438617|
|         247|  8.2356e+00|   -4.922413|   -5.070739|   -5.555724|   -5.131955|   -5.161483|   -7.796075|    1.438836|
|         248|  8.2351e+00|   -4.922915|   -5.071494|   -5.555665|   -5.132641|   -5.162127|   -7.796102|    1.439054|
|         249|  8.2341e+00|   -4.923400|   -5.072232|   -5.555604|   -5.133312|   -5.162761|   -7.796136|    1.439272|
|         250|  8.2324e+00|   -4.923867|   -5.072952|   -5.555539|   -5.133969|   -5.163384|   -7.796177|    1.439490|
|         251|  8.2308e+00|   -4.924319|   -5.073656|   -5.555472|   -5.134611|   -5.163997|   -7.796225|    1.439708|
|         252|  8.2300e+00|   -4.924753|   -5.074343|   -5.555402|   -5.135239|   -5.164600|   -7.796279|    1.439925|
|         253|  8.2290e+00|   -4.925171|   -5.075012|   -5.555328|   -5.135853|   -5.165192|   -7.796341|    1.440143|
|         254|  8.2278e+00|   -4.925573|   -5.075663|   -5.555252|   -5.136452|   -5.165773|   -7.796410|    1.440361|
|         255|  8.2263e+00|   -4.925956|   -5.076296|   -5.555170|   -5.137035|   -5.166343|   -7.796486|    1.440578|
|         256|  8.2253e+00|   -4.926322|   -5.076911|   -5.555085|   -5.137603|   -5.166901|   -7.796569|    1.440796|
|         257|  8.2242e+00|   -4.926669|   -5.077507|   -5.554996|   -5.138155|   -5.167447|   -7.796660|    1.441013|
|         258|  8.2234e+00|   -4.926998|   -5.078084|   -5.554903|   -5.138691|   -5.167981|   -7.796757|    1.441230|
|         259|  8.2266e+00|   -4.927310|   -5.078644|   -5.554807|   -5.139211|   -5.168503|   -7.796861|    1.441448|
|         260|  8.2279e+00|   -4.927603|   -5.079185|   -5.554706|   -5.139714|   -5.169014|   -7.796972|    1.441665|
|         261|  8.2283e+00|   -4.927879|   -5.079708|   -5.554601|   -5.140202|   -5.169512|   -7.797090|    1.441882|
|         262|  8.2286e+00|   -4.928135|   -5.080211|   -5.554491|   -5.140672|   -5.169998|   -7.797215|    1.442099|
|         263|  8.2277e+00|   -4.928373|   -5.080696|   -5.554378|   -5.141125|   -5.170471|   -7.797346|    1.442316|
|         264|  8.2273e+00|   -4.928592|   -5.081162|   -5.554262|   -5.141561|   -5.170932|   -7.797485|    1.442533|
|         265|  8.2268e+00|   -4.928794|   -5.081609|   -5.554142|   -5.141980|   -5.171380|   -7.797630|    1.442749|
|         266|  8.2255e+00|   -4.928976|   -5.082036|   -5.554018|   -5.142382|   -5.171815|   -7.797781|    1.442966|
|         267|  8.2241e+00|   -4.929139|   -5.082445|   -5.553891|   -5.142766|   -5.172236|   -7.797940|    1.443183|
|         268|  8.2235e+00|   -4.929282|   -5.082833|   -5.553759|   -5.143133|   -5.172646|   -7.798104|    1.443399|
|         269|  8.2224e+00|   -4.929406|   -5.083202|   -5.553622|   -5.143483|   -5.173042|   -7.798275|    1.443615|
|         270|  8.2211e+00|   -4.929511|   -5.083551|   -5.553479|   -5.143814|   -5.173424|   -7.798453|    1.443832|
|         271|  8.2202e+00|   -4.929595|   -5.083880|   -5.553331|   -5.144126|   -5.173792|   -7.798637|    1.444048|
|         272|  8.2194e+00|   -4.929659|   -5.084187|   -5.553178|   -5.144421|   -5.174146|   -7.798826|    1.444264|
|         273|  8.2183e+00|   -4.929704|   -5.084475|   -5.553021|   -5.144697|   -5.174486|   -7.799022|    1.444480|
|         274|  8.2172e+00|   -4.929729|   -5.084743|   -5.552859|   -5.144954|   -5.174811|   -7.799224|    1.444696|
|         275|  8.2164e+00|   -4.929734|   -5.084990|   -5.552693|   -5.145192|   -5.175122|   -7.799432|    1.444912|
|         276|  8.2155e+00|   -4.929719|   -5.085216|   -5.552522|   -5.145412|   -5.175419|   -7.799644|    1.445127|
|         277|  8.2146e+00|   -4.929684|   -5.085421|   -5.552343|   -5.145612|   -5.175700|   -7.799862|    1.445343|
|         278|  8.2137e+00|   -4.929627|   -5.085604|   -5.552159|   -5.145792|   -5.175965|   -7.800085|    1.445558|
|         279|  8.2131e+00|   -4.929549|   -5.085767|   -5.551969|   -5.145953|   -5.176215|   -7.800313|    1.445774|
|         280|  8.2122e+00|   -4.929452|   -5.085909|   -5.551776|   -5.146096|   -5.176450|   -7.800547|    1.445989|
|         281|  8.2113e+00|   -4.929337|   -5.086029|   -5.551583|   -5.146220|   -5.176672|   -7.800785|    1.446204|
|         282|  8.2100e+00|   -4.929203|   -5.086129|   -5.551387|   -5.146327|   -5.176880|   -7.801029|    1.446419|
|         283|  8.2095e+00|   -4.929049|   -5.086207|   -5.551189|   -5.146414|   -5.177073|   -7.801278|    1.446634|
|         284|  8.2089e+00|   -4.928875|   -5.086263|   -5.550989|   -5.146480|   -5.177249|   -7.801532|    1.446848|
|         285|  8.2083e+00|   -4.928681|   -5.086298|   -5.550787|   -5.146528|   -5.177411|   -7.801792|    1.447063|
|         286|  8.2079e+00|   -4.928469|   -5.086311|   -5.550583|   -5.146557|   -5.177558|   -7.802056|    1.447277|
|         287|  8.2074e+00|   -4.928239|   -5.086303|   -5.550377|   -5.146568|   -5.177691|   -7.802326|    1.447491|
|         288|  8.2088e+00|   -4.927991|   -5.086273|   -5.550170|   -5.146560|   -5.177810|   -7.802600|    1.447705|
|         289|  8.2085e+00|   -4.927725|   -5.086221|   -5.549961|   -5.146533|   -5.177914|   -7.802880|    1.447918|
|         290|  8.2083e+00|   -4.927440|   -5.086148|   -5.549749|   -5.146488|   -5.178003|   -7.803165|    1.448132|
|         291|  8.2078e+00|   -4.927137|   -5.086053|   -5.549535|   -5.146423|   -5.178076|   -7.803454|    1.448345|
|         292|  8.2074e+00|   -4.926817|   -5.085937|   -5.549321|   -5.146341|   -5.178136|   -7.803749|    1.448558|
|         293|  8.2068e+00|   -4.926478|   -5.085800|   -5.549104|   -5.146239|   -5.178181|   -7.804049|    1.448771|
|         294|  8.2060e+00|   -4.926121|   -5.085642|   -5.548883|   -5.146118|   -5.178210|   -7.804354|    1.448983|
|         295|  8.2052e+00|   -4.925747|   -5.085462|   -5.548659|   -5.145979|   -5.178224|   -7.804664|    1.449196|
|         296|  8.2050e+00|   -4.925357|   -5.085261|   -5.548435|   -5.145823|   -5.178225|   -7.804978|    1.449408|
|         297|  8.2040e+00|   -4.924951|   -5.085039|   -5.548209|   -5.145650|   -5.178212|   -7.805298|    1.449620|
|         298|  8.2034e+00|   -4.924527|   -5.084795|   -5.547979|   -5.145459|   -5.178184|   -7.805623|    1.449831|
|         299|  8.2030e+00|   -4.924088|   -5.084531|   -5.547746|   -5.145250|   -5.178142|   -7.805953|    1.450042|
|         300|  8.2024e+00|   -4.923633|   -5.084246|   -5.547511|   -5.145025|   -5.178086|   -7.806287|    1.450254|
+-----------------------------------------------------------------------+
|        File Writing Summary       |              Filename             |
+-----------------------------------------------------------------------+
|SU2 binary restart                 |restart_flow.dat                   |
|Paraview                           |flow.vtu                           |
|Paraview surface                   |surface_flow.vtu                   |
+-----------------------------------------------------------------------+
+--------------------------------------------------------------------------------------------------------------------+
|  Inner_Iter|   Time(sec)|    rms[Rho]|   rms[RhoU]|   rms[RhoV]|   rms[RhoW]|   rms[RhoE]|     rms[nu]|          CD|
+--------------------------------------------------------------------------------------------------------------------+
|         301|  8.2772e+00|   -4.923163|   -5.083941|   -5.547274|   -5.144783|   -5.178016|   -7.806627|    1.450464|
|         302|  8.2772e+00|   -4.922676|   -5.083615|   -5.547035|   -5.144523|   -5.177931|   -7.806972|    1.450675|
|         303|  8.2773e+00|   -4.922174|   -5.083269|   -5.546793|   -5.144246|   -5.177833|   -7.807321|    1.450885|
|         304|  8.2767e+00|   -4.921656|   -5.082902|   -5.546548|   -5.143952|   -5.177719|   -7.807676|    1.451095|
|         305|  8.2764e+00|   -4.921122|   -5.082517|   -5.546300|   -5.143642|   -5.177592|   -7.808036|    1.451304|
|         306|  8.2756e+00|   -4.920575|   -5.082113|   -5.546048|   -5.143316|   -5.177452|   -7.808400|    1.451514|
|         307|  8.2748e+00|   -4.920012|   -5.081690|   -5.545793|   -5.142973|   -5.177298|   -7.808770|    1.451723|
|         308|  8.2738e+00|   -4.919434|   -5.081248|   -5.545534|   -5.142614|   -5.177129|   -7.809144|    1.451931|
|         309|  8.2729e+00|   -4.918842|   -5.080788|   -5.545274|   -5.142238|   -5.176947|   -7.809523|    1.452140|
|         310|  8.2720e+00|   -4.918236|   -5.080309|   -5.545012|   -5.141846|   -5.176752|   -7.809907|    1.452348|
|         311|  8.2715e+00|   -4.917616|   -5.079812|   -5.544747|   -5.141438|   -5.176542|   -7.810297|    1.452555|
|         312|  8.2706e+00|   -4.916981|   -5.079295|   -5.544481|   -5.141013|   -5.176319|   -7.810692|    1.452763|
|         313|  8.2694e+00|   -4.916333|   -5.078761|   -5.544212|   -5.140572|   -5.176082|   -7.811092|    1.452970|
|         314|  8.2683e+00|   -4.915670|   -5.078208|   -5.543940|   -5.140114|   -5.175830|   -7.811496|    1.453177|
|         315|  8.2677e+00|   -4.914994|   -5.077638|   -5.543664|   -5.139640|   -5.175564|   -7.811906|    1.453383|
|         316|  8.2675e+00|   -4.914304|   -5.077051|   -5.543384|   -5.139151|   -5.175286|   -7.812320|    1.453589|
|         317|  8.2666e+00|   -4.913601|   -5.076447|   -5.543101|   -5.138646|   -5.174993|   -7.812739|    1.453795|
|         318|  8.2657e+00|   -4.912883|   -5.075825|   -5.542815|   -5.138124|   -5.174685|   -7.813164|    1.454001|
|         319|  8.2642e+00|   -4.912152|   -5.075186|   -5.542526|   -5.137587|   -5.174364|   -7.813593|    1.454206|
|         320|  8.2631e+00|   -4.911407|   -5.074529|   -5.542233|   -5.137033|   -5.174028|   -7.814027|    1.454411|
|         321|  8.2621e+00|   -4.910649|   -5.073856|   -5.541938|   -5.136464|   -5.173678|   -7.814466|    1.454616|
|         322|  8.2618e+00|   -4.909878|   -5.073167|   -5.541641|   -5.135880|   -5.173315|   -7.814910|    1.454820|
|         323|  8.2613e+00|   -4.909095|   -5.072462|   -5.541340|   -5.135280|   -5.172938|   -7.815359|    1.455024|
|         324|  8.2601e+00|   -4.908299|   -5.071741|   -5.541037|   -5.134664|   -5.172547|   -7.815813|    1.455228|
|         325|  8.2589e+00|   -4.907491|   -5.071004|   -5.540731|   -5.134035|   -5.172144|   -7.816272|    1.455431|
|         326|  8.2579e+00|   -4.906672|   -5.070251|   -5.540423|   -5.133392|   -5.171728|   -7.816736|    1.455634|
|         327|  8.2568e+00|   -4.905841|   -5.069482|   -5.540110|   -5.132734|   -5.171298|   -7.817205|    1.455837|
|         328|  8.2553e+00|   -4.905000|   -5.068699|   -5.539796|   -5.132064|   -5.170857|   -7.817679|    1.456039|
|         329|  8.2545e+00|   -4.904148|   -5.067901|   -5.539478|   -5.131381|   -5.170404|   -7.818158|    1.456242|
|         330|  8.2536e+00|   -4.903285|   -5.067090|   -5.539156|   -5.130684|   -5.169938|   -7.818641|    1.456443|
|         331|  8.2529e+00|   -4.902410|   -5.066263|   -5.538830|   -5.129973|   -5.169458|   -7.819130|    1.456645|
|         332|  8.2521e+00|   -4.901524|   -5.065422|   -5.538499|   -5.129249|   -5.168966|   -7.819624|    1.456846|
|         333|  8.2511e+00|   -4.900629|   -5.064566|   -5.538165|   -5.128513|   -5.168462|   -7.820123|    1.457047|
|         334|  8.2504e+00|   -4.899723|   -5.063698|   -5.537830|   -5.127764|   -5.167946|   -7.820627|    1.457248|
|         335|  8.2499e+00|   -4.898808|   -5.062815|   -5.537491|   -5.127003|   -5.167417|   -7.821136|    1.457449|
|         336|  8.2493e+00|   -4.897882|   -5.061918|   -5.537148|   -5.126229|   -5.166876|   -7.821650|    1.457649|
|         337|  8.2486e+00|   -4.896947|   -5.061008|   -5.536802|   -5.125442|   -5.166323|   -7.822169|    1.457849|
|         338|  8.2479e+00|   -4.896001|   -5.060085|   -5.536452|   -5.124644|   -5.165758|   -7.822693|    1.458048|
|         339|  8.2468e+00|   -4.895047|   -5.059149|   -5.536099|   -5.123834|   -5.165181|   -7.823221|    1.458248|
|         340|  8.2459e+00|   -4.894083|   -5.058201|   -5.535744|   -5.123013|   -5.164592|   -7.823755|    1.458447|
|         341|  8.2454e+00|   -4.893110|   -5.057240|   -5.535386|   -5.122180|   -5.163992|   -7.824294|    1.458645|
|         342|  8.2447e+00|   -4.892130|   -5.056268|   -5.535026|   -5.121337|   -5.163382|   -7.824837|    1.458844|
|         343|  8.2443e+00|   -4.891141|   -5.055285|   -5.534665|   -5.120483|   -5.162761|   -7.825386|    1.459042|
|         344|  8.2434e+00|   -4.890147|   -5.054291|   -5.534303|   -5.119622|   -5.162131|   -7.825940|    1.459240|
|         345|  8.2428e+00|   -4.889144|   -5.053287|   -5.533939|   -5.118750|   -5.161491|   -7.826499|    1.459438|
|         346|  8.2428e+00|   -4.888135|   -5.052273|   -5.533573|   -5.117869|   -5.160841|   -7.827063|    1.459635|
|         347|  8.2431e+00|   -4.887118|   -5.051248|   -5.533204|   -5.116977|   -5.160181|   -7.827632|    1.459832|
|         348|  8.2427e+00|   -4.886094|   -5.050213|   -5.532833|   -5.116075|   -5.159510|   -7.828206|    1.460029|
|         349|  8.2418e+00|   -4.885064|   -5.049171|   -5.532460|   -5.115165|   -5.158831|   -7.828785|    1.460225|
|         350|  8.2415e+00|   -4.884028|   -5.048119|   -5.532087|   -5.114247|   -5.158142|   -7.829370|    1.460421|
|         351|  8.2409e+00|   -4.882986|   -5.047058|   -5.531711|   -5.113320|   -5.157445|   -7.829959|    1.460617|
|         352|  8.2403e+00|   -4.881937|   -5.045987|   -5.531332|   -5.112383|   -5.156737|   -7.830553|    1.460813|
|         353|  8.2400e+00|   -4.880882|   -5.044908|   -5.530953|   -5.111439|   -5.156021|   -7.831153|    1.461008|
|         354|  8.2394e+00|   -4.879825|   -5.043824|   -5.530575|   -5.110490|   -5.155300|   -7.831758|    1.461203|
|         355|  8.2383e+00|   -4.878763|   -5.042735|   -5.530197|   -5.109533|   -5.154571|   -7.832368|    1.461398|
|         356|  8.2376e+00|   -4.877695|   -5.041636|   -5.529816|   -5.108568|   -5.153833|   -7.832982|    1.461592|
|         357|  8.2368e+00|   -4.876621|   -5.040529|   -5.529434|   -5.107595|   -5.153086|   -7.833603|    1.461786|
|         358|  8.2360e+00|   -4.875542|   -5.039414|   -5.529052|   -5.106614|   -5.152330|   -7.834228|    1.461979|
|         359|  8.2356e+00|   -4.874457|   -5.038290|   -5.528670|   -5.105627|   -5.151566|   -7.834858|    1.462173|
|         360|  8.2352e+00|   -4.873368|   -5.037158|   -5.528288|   -5.104632|   -5.150793|   -7.835494|    1.462366|
|         361|  8.2344e+00|   -4.872273|   -5.036019|   -5.527904|   -5.103629|   -5.150011|   -7.836134|    1.462558|
|         362|  8.2335e+00|   -4.871173|   -5.034873|   -5.527517|   -5.102619|   -5.149221|   -7.836780|    1.462751|
|         363|  8.2328e+00|   -4.870068|   -5.033718|   -5.527130|   -5.101602|   -5.148423|   -7.837431|    1.462942|
|         364|  8.2318e+00|   -4.868958|   -5.032556|   -5.526740|   -5.100578|   -5.147615|   -7.838088|    1.463134|
|         365|  8.2310e+00|   -4.867843|   -5.031387|   -5.526350|   -5.099547|   -5.146800|   -7.838749|    1.463325|
|         366|  8.2304e+00|   -4.866725|   -5.030210|   -5.525958|   -5.098511|   -5.145978|   -7.839416|    1.463516|
|         367|  8.2294e+00|   -4.865602|   -5.029027|   -5.525567|   -5.097468|   -5.145148|   -7.840088|    1.463706|
|         368|  8.2285e+00|   -4.864476|   -5.027837|   -5.525175|   -5.096419|   -5.144310|   -7.840765|    1.463896|
|         369|  8.2274e+00|   -4.863345|   -5.026641|   -5.524783|   -5.095365|   -5.143465|   -7.841447|    1.464086|
|         370|  8.2266e+00|   -4.862212|   -5.025440|   -5.524389|   -5.094305|   -5.142613|   -7.842134|    1.464275|
|         371|  8.2260e+00|   -4.861074|   -5.024232|   -5.523995|   -5.093238|   -5.141753|   -7.842826|    1.464464|
|         372|  8.2251e+00|   -4.859932|   -5.023017|   -5.523601|   -5.092166|   -5.140885|   -7.843523|    1.464652|
|         373|  8.2241e+00|   -4.858788|   -5.021798|   -5.523207|   -5.091090|   -5.140011|   -7.844225|    1.464840|
|         374|  8.2233e+00|   -4.857640|   -5.020573|   -5.522813|   -5.090008|   -5.139131|   -7.844932|    1.465028|
|         375|  8.2232e+00|   -4.856490|   -5.019344|   -5.522419|   -5.088921|   -5.138244|   -7.845643|    1.465215|
|         376|  8.2228e+00|   -4.855337|   -5.018110|   -5.522022|   -5.087829|   -5.137350|   -7.846360|    1.465402|
|         377|  8.2220e+00|   -4.854180|   -5.016871|   -5.521623|   -5.086732|   -5.136449|   -7.847081|    1.465588|
|         378|  8.2215e+00|   -4.853021|   -5.015628|   -5.521225|   -5.085632|   -5.135542|   -7.847807|    1.465774|
|         379|  8.2211e+00|   -4.851860|   -5.014380|   -5.520825|   -5.084526|   -5.134630|   -7.848538|    1.465960|
|         380|  8.2203e+00|   -4.850698|   -5.013130|   -5.520427|   -5.083418|   -5.133713|   -7.849275|    1.466145|
|         381|  8.2191e+00|   -4.849533|   -5.011876|   -5.520029|   -5.082307|   -5.132791|   -7.850016|    1.466330|
|         382|  8.2181e+00|   -4.848367|   -5.010618|   -5.519630|   -5.081192|   -5.131863|   -7.850762|    1.466514|
|         383|  8.2173e+00|   -4.847199|   -5.009357|   -5.519230|   -5.080073|   -5.130930|   -7.851513|    1.466698|
|         384|  8.2165e+00|   -4.846029|   -5.008092|   -5.518830|   -5.078951|   -5.129991|   -7.852269|    1.466881|
|         385|  8.2156e+00|   -4.844857|   -5.006824|   -5.518427|   -5.077824|   -5.129046|   -7.853030|    1.467064|
|         386|  8.2147e+00|   -4.843684|   -5.005554|   -5.518025|   -5.076695|   -5.128097|   -7.853796|    1.467247|
|         387|  8.2142e+00|   -4.842509|   -5.004280|   -5.517623|   -5.075562|   -5.127142|   -7.854567|    1.467429|
|         388|  8.2135e+00|   -4.841334|   -5.003005|   -5.517219|   -5.074427|   -5.126184|   -7.855344|    1.467611|
|         389|  8.2126e+00|   -4.840157|   -5.001727|   -5.516817|   -5.073289|   -5.125220|   -7.856125|    1.467792|
|         390|  8.2116e+00|   -4.838980|   -5.000447|   -5.516413|   -5.072148|   -5.124252|   -7.856912|    1.467973|
|         391|  8.2108e+00|   -4.837801|   -4.999165|   -5.516006|   -5.071005|   -5.123280|   -7.857703|    1.468153|
|         392|  8.2103e+00|   -4.836621|   -4.997881|   -5.515597|   -5.069859|   -5.122303|   -7.858500|    1.468334|
|         393|  8.2096e+00|   -4.835442|   -4.996596|   -5.515190|   -5.068714|   -5.121324|   -7.859302|    1.468513|
|         394|  8.2088e+00|   -4.834264|   -4.995310|   -5.514781|   -5.067567|   -5.120341|   -7.860109|    1.468693|
|         395|  8.2079e+00|   -4.833085|   -4.994023|   -5.514373|   -5.066419|   -5.119356|   -7.860922|    1.468872|
|         396|  8.2072e+00|   -4.831906|   -4.992735|   -5.513964|   -5.065268|   -5.118367|   -7.861739|    1.469050|
|         397|  8.2069e+00|   -4.830727|   -4.991446|   -5.513555|   -5.064117|   -5.117374|   -7.862562|    1.469228|
|         398|  8.2063e+00|   -4.829549|   -4.990156|   -5.513145|   -5.062964|   -5.116379|   -7.863390|    1.469406|
|         399|  8.2056e+00|   -4.828369|   -4.988863|   -5.512734|   -5.061811|   -5.115378|   -7.864224|    1.469584|
|         400|  8.2050e+00|   -4.827189|   -4.987568|   -5.512322|   -5.060656|   -5.114375|   -7.865063|    1.469761|
|         401|  8.2043e+00|   -4.826009|   -4.986274|   -5.511909|   -5.059500|   -5.113368|   -7.865907|    1.469938|
|         402|  8.2040e+00|   -4.824829|   -4.984978|   -5.511496|   -5.058342|   -5.112359|   -7.866757|    1.470115|
|         403|  8.2037e+00|   -4.823650|   -4.983683|   -5.511082|   -5.057183|   -5.111346|   -7.867611|    1.470291|
|         404|  8.2033e+00|   -4.822472|   -4.982388|   -5.510668|   -5.056024|   -5.110332|   -7.868470|    1.470467|
|         405|  8.2026e+00|   -4.821295|   -4.981093|   -5.510253|   -5.054864|   -5.109315|   -7.869335|    1.470642|
|         406|  8.2019e+00|   -4.820119|   -4.979798|   -5.509840|   -5.053703|   -5.108296|   -7.870205|    1.470818|
|         407|  8.2015e+00|   -4.818945|   -4.978504|   -5.509426|   -5.052541|   -5.107275|   -7.871079|    1.470993|
|         408|  8.2010e+00|   -4.817771|   -4.977210|   -5.509012|   -5.051379|   -5.106252|   -7.871960|    1.471168|
|         409|  8.2003e+00|   -4.816598|   -4.975917|   -5.508597|   -5.050216|   -5.105227|   -7.872845|    1.471342|
|         410|  8.1994e+00|   -4.815426|   -4.974625|   -5.508183|   -5.049052|   -5.104199|   -7.873736|    1.471517|
|         411|  8.1985e+00|   -4.814256|   -4.973333|   -5.507769|   -5.047888|   -5.103169|   -7.874632|    1.471691|
|         412|  8.1978e+00|   -4.813087|   -4.972044|   -5.507355|   -5.046724|   -5.102139|   -7.875532|    1.471865|
|         413|  8.1972e+00|   -4.811922|   -4.970757|   -5.506942|   -5.045562|   -5.101109|   -7.876438|    1.472039|
|         414|  8.1965e+00|   -4.810758|   -4.969471|   -5.506529|   -5.044400|   -5.100077|   -7.877349|    1.472212|
|         415|  8.1958e+00|   -4.809596|   -4.968188|   -5.506115|   -5.043239|   -5.099045|   -7.878265|    1.472386|
|         416|  8.1952e+00|   -4.808439|   -4.966907|   -5.505702|   -5.042081|   -5.098015|   -7.879186|    1.472559|
|         417|  8.1945e+00|   -4.807283|   -4.965629|   -5.505289|   -5.040924|   -5.096984|   -7.880112|    1.472732|
|         418|  8.1940e+00|   -4.806130|   -4.964352|   -5.504875|   -5.039768|   -5.095952|   -7.881043|    1.472905|
|         419|  8.1935e+00|   -4.804979|   -4.963078|   -5.504459|   -5.038611|   -5.094918|   -7.881979|    1.473078|
|         420|  8.1931e+00|   -4.803831|   -4.961807|   -5.504043|   -5.037456|   -5.093885|   -7.882920|    1.473250|
|         421|  8.1924e+00|   -4.802685|   -4.960538|   -5.503626|   -5.036302|   -5.092850|   -7.883866|    1.473423|
|         422|  8.1919e+00|   -4.801540|   -4.959270|   -5.503209|   -5.035148|   -5.091815|   -7.884816|    1.473595|
|         423|  8.1915e+00|   -4.800398|   -4.958004|   -5.502792|   -5.033994|   -5.090777|   -7.885772|    1.473768|
|         424|  8.1910e+00|   -4.799257|   -4.956741|   -5.502374|   -5.032841|   -5.089739|   -7.886732|    1.473940|
|         425|  8.1906e+00|   -4.798119|   -4.955479|   -5.501958|   -5.031689|   -5.088701|   -7.887697|    1.474112|
|         426|  8.1901e+00|   -4.796984|   -4.954221|   -5.501541|   -5.030539|   -5.087663|   -7.888666|    1.474284|
|         427|  8.1896e+00|   -4.795853|   -4.952966|   -5.501125|   -5.029390|   -5.086625|   -7.889641|    1.474456|
|         428|  8.1894e+00|   -4.794724|   -4.951715|   -5.500711|   -5.028243|   -5.085588|   -7.890620|    1.474628|
|         429|  8.1888e+00|   -4.793600|   -4.950467|   -5.500298|   -5.027098|   -5.084552|   -7.891603|    1.474800|
|         430|  8.1884e+00|   -4.792478|   -4.949223|   -5.499885|   -5.025954|   -5.083515|   -7.892591|    1.474971|
|         431|  8.1881e+00|   -4.791359|   -4.947981|   -5.499474|   -5.024813|   -5.082480|   -7.893584|    1.475143|
|         432|  8.1876e+00|   -4.790244|   -4.946744|   -5.499065|   -5.023673|   -5.081445|   -7.894582|    1.475315|
|         433|  8.1872e+00|   -4.789136|   -4.945513|   -5.498654|   -5.022541|   -5.080414|   -7.895584|    1.475486|
|         434|  8.1867e+00|   -4.788031|   -4.944286|   -5.498245|   -5.021412|   -5.079385|   -7.896590|    1.475658|
|         435|  8.1861e+00|   -4.786929|   -4.943063|   -5.497837|   -5.020285|   -5.078356|   -7.897601|    1.475829|
|         436|  8.1857e+00|   -4.785831|   -4.941845|   -5.497429|   -5.019161|   -5.077328|   -7.898617|    1.476000|
|         437|  8.1855e+00|   -4.784736|   -4.940630|   -5.497021|   -5.018039|   -5.076302|   -7.899637|    1.476172|
|         438|  8.1851e+00|   -4.783645|   -4.939420|   -5.496616|   -5.016919|   -5.075277|   -7.900661|    1.476343|
|         439|  8.1844e+00|   -4.782560|   -4.938217|   -5.496216|   -5.015805|   -5.074257|   -7.901689|    1.476514|
|         440|  8.1839e+00|   -4.781479|   -4.937018|   -5.495817|   -5.014695|   -5.073238|   -7.902722|    1.476685|
|         441|  8.1837e+00|   -4.780404|   -4.935825|   -5.495422|   -5.013589|   -5.072223|   -7.903759|    1.476856|
|         442|  8.1830e+00|   -4.779332|   -4.934637|   -5.495027|   -5.012485|   -5.071210|   -7.904800|    1.477027|
|         443|  8.1827e+00|   -4.778265|   -4.933453|   -5.494633|   -5.011384|   -5.070198|   -7.905846|    1.477198|
|         444|  8.1823e+00|   -4.777201|   -4.932274|   -5.494241|   -5.010287|   -5.069187|   -7.906895|    1.477369|
|         445|  8.1818e+00|   -4.776143|   -4.931100|   -5.493852|   -5.009193|   -5.068180|   -7.907948|    1.477539|
|         446|  8.1813e+00|   -4.775090|   -4.929933|   -5.493467|   -5.008103|   -5.067176|   -7.909006|    1.477710|
|         447|  8.1805e+00|   -4.774042|   -4.928771|   -5.493084|   -5.007017|   -5.066175|   -7.910067|    1.477880|
|         448|  8.1802e+00|   -4.773000|   -4.927614|   -5.492704|   -5.005936|   -5.065177|   -7.911133|    1.478051|
|         449|  8.1799e+00|   -4.771961|   -4.926461|   -5.492327|   -5.004859|   -5.064181|   -7.912202|    1.478221|
|         450|  8.1796e+00|   -4.770927|   -4.925312|   -5.491951|   -5.003784|   -5.063187|   -7.913275|    1.478391|
+-----------------------------------------------------------------------+
|        File Writing Summary       |              Filename             |
+-----------------------------------------------------------------------+
|SU2 binary restart                 |restart_flow.dat                   |
|Paraview                           |flow.vtu                           |
|Paraview surface                   |surface_flow.vtu                   |
+-----------------------------------------------------------------------+
+--------------------------------------------------------------------------------------------------------------------+
|  Inner_Iter|   Time(sec)|    rms[Rho]|   rms[RhoU]|   rms[RhoV]|   rms[RhoW]|   rms[RhoE]|     rms[nu]|          CD|
+--------------------------------------------------------------------------------------------------------------------+
|         451|  8.2272e+00|   -4.769897|   -4.924168|   -5.491579|   -5.002713|   -5.062195|   -7.914352|    1.478561|
|         452|  8.2270e+00|   -4.768872|   -4.923028|   -5.491210|   -5.001646|   -5.061205|   -7.915433|    1.478730|
|         453|  8.2267e+00|   -4.767851|   -4.921891|   -5.490844|   -5.000583|   -5.060218|   -7.916517|    1.478900|
|         454|  8.2262e+00|   -4.766835|   -4.920758|   -5.490481|   -4.999523|   -5.059233|   -7.917606|    1.479069|
|         455|  8.2261e+00|   -4.765824|   -4.919631|   -5.490121|   -4.998468|   -5.058250|   -7.918697|    1.479238|
|         456|  8.2255e+00|   -4.764818|   -4.918507|   -5.489763|   -4.997417|   -5.057271|   -7.919793|    1.479407|
|         457|  8.2248e+00|   -4.763817|   -4.917388|   -5.489409|   -4.996371|   -5.056294|   -7.920892|    1.479576|
|         458|  8.2243e+00|   -4.762822|   -4.916274|   -5.489058|   -4.995329|   -5.055320|   -7.921995|    1.479745|
|         459|  8.2238e+00|   -4.761831|   -4.915164|   -5.488710|   -4.994291|   -5.054349|   -7.923101|    1.479913|
|         460|  8.2232e+00|   -4.760846|   -4.914059|   -5.488365|   -4.993258|   -5.053381|   -7.924210|    1.480081|
|         461|  8.2225e+00|   -4.759866|   -4.912958|   -5.488022|   -4.992230|   -5.052416|   -7.925323|    1.480248|
|         462|  8.2217e+00|   -4.758891|   -4.911863|   -5.487682|   -4.991207|   -5.051454|   -7.926440|    1.480416|
|         463|  8.2219e+00|   -4.757923|   -4.910774|   -5.487345|   -4.990190|   -5.050497|   -7.927560|    1.480583|
|         464|  8.2214e+00|   -4.756960|   -4.909690|   -5.487011|   -4.989179|   -5.049544|   -7.928683|    1.480749|
|         465|  8.2204e+00|   -4.756003|   -4.908611|   -5.486678|   -4.988171|   -5.048593|   -7.929809|    1.480916|
|         466|  8.2200e+00|   -4.755050|   -4.907538|   -5.486347|   -4.987169|   -5.047646|   -7.930938|    1.481082|
|         467|  8.2192e+00|   -4.754103|   -4.906470|   -5.486019|   -4.986171|   -5.046702|   -7.932071|    1.481247|
|         468|  8.2185e+00|   -4.753162|   -4.905407|   -5.485692|   -4.985178|   -5.045762|   -7.933207|    1.481412|
|         469|  8.2179e+00|   -4.752225|   -4.904349|   -5.485366|   -4.984191|   -5.044824|   -7.934345|    1.481577|
|         470|  8.2173e+00|   -4.751295|   -4.903297|   -5.485044|   -4.983209|   -5.043892|   -7.935487|    1.481742|
|         471|  8.2165e+00|   -4.750370|   -4.902251|   -5.484723|   -4.982232|   -5.042962|   -7.936631|    1.481906|
|         472|  8.2157e+00|   -4.749450|   -4.901210|   -5.484403|   -4.981260|   -5.042037|   -7.937779|    1.482069|
|         473|  8.2152e+00|   -4.748534|   -4.900174|   -5.484084|   -4.980293|   -5.041113|   -7.938929|    1.482232|
|         474|  8.2144e+00|   -4.747624|   -4.899143|   -5.483765|   -4.979330|   -5.040194|   -7.940075|    1.482395|
|         475|  8.2135e+00|   -4.746719|   -4.898117|   -5.483447|   -4.978371|   -5.039277|   -7.941218|    1.482557|
|         476|  8.2125e+00|   -4.745819|   -4.897098|   -5.483129|   -4.977418|   -5.038365|   -7.942365|    1.482718|
|         477|  8.2116e+00|   -4.744924|   -4.896084|   -5.482812|   -4.976468|   -5.037456|   -7.943514|    1.482879|
|         478|  8.2108e+00|   -4.744034|   -4.895076|   -5.482497|   -4.975524|   -5.036550|   -7.944666|    1.483040|
|         479|  8.2102e+00|   -4.743150|   -4.894074|   -5.482184|   -4.974585|   -5.035649|   -7.945820|    1.483200|
|         480|  8.2095e+00|   -4.742273|   -4.893079|   -5.481874|   -4.973652|   -5.034753|   -7.946977|    1.483359|
|         481|  8.2087e+00|   -4.741401|   -4.892089|   -5.481565|   -4.972725|   -5.033861|   -7.948136|    1.483518|
|         482|  8.2083e+00|   -4.740535|   -4.891106|   -5.481259|   -4.971803|   -5.032974|   -7.949298|    1.483676|
|         483|  8.2079e+00|   -4.739674|   -4.890127|   -5.480955|   -4.970886|   -5.032091|   -7.950462|    1.483834|
|         484|  8.2075e+00|   -4.738818|   -4.889154|   -5.480654|   -4.969974|   -5.031211|   -7.951628|    1.483991|
|         485|  8.2070e+00|   -4.737968|   -4.888187|   -5.480354|   -4.969067|   -5.030336|   -7.952797|    1.484147|
|         486|  8.2066e+00|   -4.737124|   -4.887226|   -5.480057|   -4.968166|   -5.029465|   -7.953967|    1.484303|
|         487|  8.2061e+00|   -4.736285|   -4.886270|   -5.479761|   -4.967269|   -5.028597|   -7.955139|    1.484459|
|         488|  8.2057e+00|   -4.735451|   -4.885319|   -5.479468|   -4.966379|   -5.027734|   -7.956314|    1.484613|
|         489|  8.2053e+00|   -4.734622|   -4.884373|   -5.479176|   -4.965493|   -5.026874|   -7.957489|    1.484767|
|         490|  8.2049e+00|   -4.733799|   -4.883434|   -5.478886|   -4.964611|   -5.026017|   -7.958667|    1.484920|
|         491|  8.2045e+00|   -4.732980|   -4.882500|   -5.478597|   -4.963735|   -5.025165|   -7.959846|    1.485073|
|         492|  8.2038e+00|   -4.732167|   -4.881572|   -5.478308|   -4.962865|   -5.024317|   -7.961026|    1.485225|
|         493|  8.2033e+00|   -4.731360|   -4.880650|   -5.478021|   -4.961999|   -5.023472|   -7.962207|    1.485376|
|         494|  8.2026e+00|   -4.730558|   -4.879734|   -5.477735|   -4.961139|   -5.022632|   -7.963390|    1.485527|
|         495|  8.2021e+00|   -4.729763|   -4.878826|   -5.477455|   -4.960287|   -5.021799|   -7.964573|    1.485677|
|         496|  8.2019e+00|   -4.728978|   -4.877929|   -5.477183|   -4.959443|   -5.020975|   -7.965757|    1.485826|
|         497|  8.2014e+00|   -4.728198|   -4.877037|   -5.476913|   -4.958605|   -5.020155|   -7.966942|    1.485975|
|         498|  8.2008e+00|   -4.727423|   -4.876150|   -5.476644|   -4.957772|   -5.019338|   -7.968127|    1.486123|
|         499|  8.2003e+00|   -4.726653|   -4.875269|   -5.476376|   -4.956944|   -5.018525|   -7.969312|    1.486270|
|         500|  8.1998e+00|   -4.725889|   -4.874393|   -5.476110|   -4.956122|   -5.017717|   -7.970498|    1.486417|
|         501|  8.1991e+00|   -4.725130|   -4.873523|   -5.475844|   -4.955305|   -5.016912|   -7.971683|    1.486563|
|         502|  8.1989e+00|   -4.724376|   -4.872659|   -5.475580|   -4.954495|   -5.016113|   -7.972869|    1.486708|
|         503|  8.1986e+00|   -4.723629|   -4.871801|   -5.475319|   -4.953689|   -5.015318|   -7.974054|    1.486853|
|         504|  8.1978e+00|   -4.722886|   -4.870949|   -5.475058|   -4.952890|   -5.014527|   -7.975239|    1.486997|
|         505|  8.1970e+00|   -4.722150|   -4.870102|   -5.474801|   -4.952096|   -5.013740|   -7.976423|    1.487140|
|         506|  8.1967e+00|   -4.721418|   -4.869261|   -5.474545|   -4.951308|   -5.012957|   -7.977606|    1.487283|
|         507|  8.1963e+00|   -4.720692|   -4.868425|   -5.474291|   -4.950525|   -5.012179|   -7.978789|    1.487425|
|         508|  8.1962e+00|   -4.719973|   -4.867597|   -5.474039|   -4.949750|   -5.011407|   -7.979971|    1.487566|
|         509|  8.1966e+00|   -4.719261|   -4.866775|   -5.473790|   -4.948983|   -5.010642|   -7.981151|    1.487707|
|         510|  8.1959e+00|   -4.718554|   -4.865960|   -5.473541|   -4.948220|   -5.009880|   -7.982330|    1.487847|
|         511|  8.1957e+00|   -4.717852|   -4.865150|   -5.473293|   -4.947463|   -5.009123|   -7.983508|    1.487986|
|         512|  8.1953e+00|   -4.717156|   -4.864345|   -5.473046|   -4.946711|   -5.008370|   -7.984684|    1.488125|
|         513|  8.1948e+00|   -4.716464|   -4.863546|   -5.472801|   -4.945963|   -5.007621|   -7.985858|    1.488263|
|         514|  8.1943e+00|   -4.715778|   -4.862753|   -5.472557|   -4.945221|   -5.006876|   -7.987030|    1.488401|
|         515|  8.1936e+00|   -4.715098|   -4.861965|   -5.472315|   -4.944483|   -5.006134|   -7.988200|    1.488537|
|         516|  8.1932e+00|   -4.714423|   -4.861183|   -5.472077|   -4.943751|   -5.005398|   -7.989367|    1.488674|
|         517|  8.1929e+00|   -4.713753|   -4.860408|   -5.471840|   -4.943024|   -5.004667|   -7.990532|    1.488809|
|         518|  8.1921e+00|   -4.713090|   -4.859638|   -5.471605|   -4.942303|   -5.003940|   -7.991694|    1.488944|
|         519|  8.1915e+00|   -4.712432|   -4.858874|   -5.471373|   -4.941588|   -5.003218|   -7.992854|    1.489079|
|         520|  8.1910e+00|   -4.711780|   -4.858115|   -5.471142|   -4.940878|   -5.002501|   -7.994010|    1.489213|
|         521|  8.1904e+00|   -4.711133|   -4.857363|   -5.470913|   -4.940173|   -5.001789|   -7.995162|    1.489346|
|         522|  8.1897e+00|   -4.710492|   -4.856616|   -5.470688|   -4.939473|   -5.001081|   -7.996312|    1.489479|
|         523|  8.1894e+00|   -4.709858|   -4.855877|   -5.470467|   -4.938779|   -5.000380|   -7.997457|    1.489611|
|         524|  8.1897e+00|   -4.709229|   -4.855144|   -5.470247|   -4.938091|   -4.999683|   -7.998599|    1.489743|
|         525|  8.1894e+00|   -4.708606|   -4.854417|   -5.470030|   -4.937409|   -4.998991|   -7.999736|    1.489874|
|         526|  8.1889e+00|   -4.707989|   -4.853697|   -5.469817|   -4.936732|   -4.998305|   -8.000869|    1.490005|
|         527|  8.1888e+00|   -4.707379|   -4.852983|   -5.469608|   -4.936062|   -4.997624|   -8.001997|    1.490135|
|         528|  8.1884e+00|   -4.706774|   -4.852275|   -5.469401|   -4.935397|   -4.996948|   -8.003121|    1.490265|
|         529|  8.1881e+00|   -4.706175|   -4.851573|   -5.469198|   -4.934737|   -4.996277|   -8.004239|    1.490394|
|         530|  8.1876e+00|   -4.705581|   -4.850877|   -5.468998|   -4.934083|   -4.995610|   -8.005353|    1.490522|
|         531|  8.1873e+00|   -4.704992|   -4.850186|   -5.468800|   -4.933434|   -4.994948|   -8.006460|    1.490650|
|         532|  8.1868e+00|   -4.704409|   -4.849501|   -5.468606|   -4.932791|   -4.994290|   -8.007562|    1.490778|
|         533|  8.1865e+00|   -4.703832|   -4.848821|   -5.468414|   -4.932154|   -4.993638|   -8.008658|    1.490905|
|         534|  8.1862e+00|   -4.703260|   -4.848148|   -5.468225|   -4.931521|   -4.992990|   -8.009748|    1.491032|
|         535|  8.1858e+00|   -4.702695|   -4.847480|   -5.468039|   -4.930895|   -4.992347|   -8.010832|    1.491158|
|         536|  8.1854e+00|   -4.702136|   -4.846820|   -5.467858|   -4.930275|   -4.991711|   -8.011909|    1.491284|
|         537|  8.1850e+00|   -4.701583|   -4.846166|   -5.467680|   -4.929661|   -4.991080|   -8.012979|    1.491409|
|         538|  8.1846e+00|   -4.701035|   -4.845518|   -5.467504|   -4.929052|   -4.990453|   -8.014042|    1.491534|
[...]
|        7831|  8.0380e+00|   -4.761612|   -4.888218|   -5.431826|   -4.954039|   -5.004050|   -7.634573|    1.452178|
|        7832|  8.0380e+00|   -4.762668|   -4.889293|   -5.432121|   -4.955003|   -5.004872|   -7.634161|    1.452234|
|        7833|  8.0379e+00|   -4.763727|   -4.890373|   -5.432413|   -4.955971|   -5.005697|   -7.633756|    1.452289|
|        7834|  8.0379e+00|   -4.764788|   -4.891455|   -5.432704|   -4.956942|   -5.006525|   -7.633358|    1.452345|
|        7835|  8.0379e+00|   -4.765851|   -4.892542|   -5.432994|   -4.957915|   -5.007354|   -7.632965|    1.452400|
|        7836|  8.0378e+00|   -4.766916|   -4.893632|   -5.433282|   -4.958891|   -5.008186|   -7.632580|    1.452455|
|        7837|  8.0378e+00|   -4.767983|   -4.894726|   -5.433567|   -4.959870|   -5.009020|   -7.632200|    1.452510|
|        7838|  8.0377e+00|   -4.769052|   -4.895824|   -5.433850|   -4.960851|   -5.009857|   -7.631828|    1.452565|
|        7839|  8.0377e+00|   -4.770122|   -4.896925|   -5.434130|   -4.961835|   -5.010695|   -7.631459|    1.452620|
|        7840|  8.0376e+00|   -4.771194|   -4.898029|   -5.434407|   -4.962821|   -5.011536|   -7.631096|    1.452674|
|        7841|  8.0376e+00|   -4.772267|   -4.899136|   -5.434681|   -4.963809|   -5.012378|   -7.630738|    1.452729|
|        7842|  8.0376e+00|   -4.773342|   -4.900246|   -5.434954|   -4.964800|   -5.013222|   -7.630388|    1.452783|
|        7843|  8.0375e+00|   -4.774418|   -4.901360|   -5.435227|   -4.965794|   -5.014069|   -7.630044|    1.452838|
|        7844|  8.0375e+00|   -4.775496|   -4.902476|   -5.435497|   -4.966789|   -5.014917|   -7.629707|    1.452892|
|        7845|  8.0375e+00|   -4.776574|   -4.903596|   -5.435763|   -4.967786|   -5.015767|   -7.629377|    1.452946|
|        7846|  8.0374e+00|   -4.777654|   -4.904717|   -5.436027|   -4.968786|   -5.016618|   -7.629054|    1.453000|
|        7847|  8.0374e+00|   -4.778735|   -4.905842|   -5.436289|   -4.969787|   -5.017471|   -7.628737|    1.453054|
|        7848|  8.0373e+00|   -4.779816|   -4.906969|   -5.436547|   -4.970790|   -5.018326|   -7.628427|    1.453107|
|        7849|  8.0374e+00|   -4.780899|   -4.908099|   -5.436803|   -4.971795|   -5.019182|   -7.628124|    1.453161|
|        7850|  8.0373e+00|   -4.781982|   -4.909231|   -5.437056|   -4.972802|   -5.020040|   -7.627827|    1.453214|
|        7851|  8.0373e+00|   -4.783066|   -4.910365|   -5.437309|   -4.973810|   -5.020900|   -7.627538|    1.453267|
|        7852|  8.0373e+00|   -4.784152|   -4.911503|   -5.437558|   -4.974820|   -5.021761|   -7.627256|    1.453320|
|        7853|  8.0372e+00|   -4.785237|   -4.912642|   -5.437803|   -4.975831|   -5.022623|   -7.626980|    1.453373|
|        7854|  8.0372e+00|   -4.786326|   -4.913787|   -5.438045|   -4.976847|   -5.023490|   -7.626712|    1.453426|
|        7855|  8.0371e+00|   -4.787416|   -4.914936|   -5.438282|   -4.977865|   -5.024359|   -7.626451|    1.453479|
|        7856|  8.0371e+00|   -4.788506|   -4.916087|   -5.438516|   -4.978884|   -5.025229|   -7.626197|    1.453531|
|        7857|  8.0370e+00|   -4.789596|   -4.917239|   -5.438745|   -4.979904|   -5.026100|   -7.625950|    1.453584|
|        7858|  8.0369e+00|   -4.790684|   -4.918394|   -5.438968|   -4.980925|   -5.026971|   -7.625710|    1.453636|
|        7859|  8.0369e+00|   -4.791772|   -4.919550|   -5.439187|   -4.981946|   -5.027843|   -7.625478|    1.453688|
|        7860|  8.0369e+00|   -4.792860|   -4.920709|   -5.439401|   -4.982968|   -5.028716|   -7.625252|    1.453739|
|        7861|  8.0368e+00|   -4.793947|   -4.921868|   -5.439612|   -4.983992|   -5.029589|   -7.625034|    1.453791|
|        7862|  8.0368e+00|   -4.795033|   -4.923029|   -5.439819|   -4.985016|   -5.030464|   -7.624823|    1.453843|
|        7863|  8.0367e+00|   -4.796118|   -4.924192|   -5.440020|   -4.986040|   -5.031338|   -7.624618|    1.453894|
|        7864|  8.0367e+00|   -4.797203|   -4.925356|   -5.440217|   -4.987064|   -5.032213|   -7.624420|    1.453945|
|        7865|  8.0366e+00|   -4.798286|   -4.926521|   -5.440411|   -4.988090|   -5.033090|   -7.624229|    1.453996|
|        7866|  8.0366e+00|   -4.799369|   -4.927688|   -5.440601|   -4.989116|   -5.033966|   -7.624047|    1.454047|
|        7867|  8.0366e+00|   -4.800450|   -4.928856|   -5.440786|   -4.990142|   -5.034843|   -7.623872|    1.454097|
|        7868|  8.0365e+00|   -4.801530|   -4.930025|   -5.440968|   -4.991169|   -5.035721|   -7.623703|    1.454148|
|        7869|  8.0365e+00|   -4.802608|   -4.931196|   -5.441144|   -4.992195|   -5.036599|   -7.623541|    1.454198|
|        7870|  8.0364e+00|   -4.803684|   -4.932367|   -5.441316|   -4.993221|   -5.037477|   -7.623385|    1.454248|
|        7871|  8.0364e+00|   -4.804757|   -4.933539|   -5.441484|   -4.994247|   -5.038355|   -7.623236|    1.454298|
|        7872|  8.0363e+00|   -4.805829|   -4.934712|   -5.441646|   -4.995273|   -5.039233|   -7.623093|    1.454348|
|        7873|  8.0363e+00|   -4.806897|   -4.935885|   -5.441803|   -4.996298|   -5.040110|   -7.622957|    1.454397|
|        7874|  8.0362e+00|   -4.807964|   -4.937060|   -5.441956|   -4.997323|   -5.040988|   -7.622828|    1.454447|
|        7875|  8.0362e+00|   -4.809028|   -4.938235|   -5.442104|   -4.998348|   -5.041867|   -7.622705|    1.454496|
|        7876|  8.0361e+00|   -4.810090|   -4.939410|   -5.442247|   -4.999373|   -5.042746|   -7.622588|    1.454545|
|        7877|  8.0361e+00|   -4.811150|   -4.940587|   -5.442385|   -5.000398|   -5.043625|   -7.622479|    1.454593|
|        7878|  8.0360e+00|   -4.812207|   -4.941765|   -5.442518|   -5.001423|   -5.044505|   -7.622377|    1.454642|
|        7879|  8.0360e+00|   -4.813260|   -4.942943|   -5.442645|   -5.002446|   -5.045384|   -7.622282|    1.454690|
|        7880|  8.0359e+00|   -4.814310|   -4.944120|   -5.442767|   -5.003468|   -5.046262|   -7.622194|    1.454739|
|        7881|  8.0359e+00|   -4.815357|   -4.945299|   -5.442885|   -5.004490|   -5.047140|   -7.622114|    1.454787|
|        7882|  8.0358e+00|   -4.816400|   -4.946477|   -5.442998|   -5.005510|   -5.048018|   -7.622040|    1.454835|
|        7883|  8.0358e+00|   -4.817439|   -4.947655|   -5.443104|   -5.006529|   -5.048895|   -7.621974|    1.454882|
|        7884|  8.0357e+00|   -4.818473|   -4.948833|   -5.443206|   -5.007546|   -5.049772|   -7.621915|    1.454930|
|        7885|  8.0357e+00|   -4.819503|   -4.950010|   -5.443302|   -5.008561|   -5.050648|   -7.621863|    1.454977|
|        7886|  8.0356e+00|   -4.820527|   -4.951188|   -5.443394|   -5.009575|   -5.051524|   -7.621819|    1.455024|
|        7887|  8.0356e+00|   -4.821546|   -4.952363|   -5.443480|   -5.010586|   -5.052398|   -7.621781|    1.455071|
|        7888|  8.0355e+00|   -4.822556|   -4.953534|   -5.443562|   -5.011592|   -5.053268|   -7.621750|    1.455118|
|        7889|  8.0354e+00|   -4.823561|   -4.954705|   -5.443638|   -5.012595|   -5.054137|   -7.621727|    1.455164|
|        7890|  8.0354e+00|   -4.824561|   -4.955874|   -5.443709|   -5.013595|   -5.055005|   -7.621710|    1.455211|
|        7891|  8.0353e+00|   -4.825554|   -4.957041|   -5.443776|   -5.014592|   -5.055871|   -7.621701|    1.455257|
|        7892|  8.0353e+00|   -4.826541|   -4.958207|   -5.443838|   -5.015586|   -5.056736|   -7.621700|    1.455303|
|        7893|  8.0352e+00|   -4.827523|   -4.959370|   -5.443896|   -5.016577|   -5.057599|   -7.621706|    1.455348|
|        7894|  8.0351e+00|   -4.828498|   -4.960532|   -5.443951|   -5.017564|   -5.058461|   -7.621719|    1.455394|
|        7895|  8.0351e+00|   -4.829466|   -4.961690|   -5.444001|   -5.018548|   -5.059321|   -7.621740|    1.455439|
|        7896|  8.0350e+00|   -4.830429|   -4.962846|   -5.444046|   -5.019528|   -5.060179|   -7.621768|    1.455484|
|        7897|  8.0349e+00|   -4.831383|   -4.963999|   -5.444086|   -5.020503|   -5.061034|   -7.621803|    1.455529|
|        7898|  8.0349e+00|   -4.832330|   -4.965148|   -5.444122|   -5.021474|   -5.061887|   -7.621846|    1.455574|
|        7899|  8.0348e+00|   -4.833270|   -4.966293|   -5.444154|   -5.022441|   -5.062737|   -7.621897|    1.455619|
|        7900|  8.0348e+00|   -4.834201|   -4.967435|   -5.444180|   -5.023403|   -5.063585|   -7.621955|    1.455663|
|        7901|  8.0347e+00|   -4.835125|   -4.968572|   -5.444202|   -5.024359|   -5.064429|   -7.622021|    1.455707|
|        7902|  8.0346e+00|   -4.836039|   -4.969706|   -5.444219|   -5.025311|   -5.065270|   -7.622095|    1.455752|
|        7903|  8.0346e+00|   -4.836946|   -4.970834|   -5.444232|   -5.026256|   -5.066108|   -7.622176|    1.455795|
|        7904|  8.0345e+00|   -4.837843|   -4.971958|   -5.444240|   -5.027196|   -5.066942|   -7.622265|    1.455839|
|        7905|  8.0345e+00|   -4.838730|   -4.973076|   -5.444245|   -5.028131|   -5.067772|   -7.622361|    1.455882|
|        7906|  8.0344e+00|   -4.839609|   -4.974190|   -5.444246|   -5.029059|   -5.068599|   -7.622466|    1.455926|
|        7907|  8.0344e+00|   -4.840478|   -4.975297|   -5.444243|   -5.029981|   -5.069423|   -7.622580|    1.455969|
|        7908|  8.0343e+00|   -4.841336|   -4.976399|   -5.444237|   -5.030896|   -5.070241|   -7.622701|    1.456011|
|        7909|  8.0343e+00|   -4.842184|   -4.977495|   -5.444225|   -5.031804|   -5.071055|   -7.622830|    1.456054|
|        7910|  8.0342e+00|   -4.843021|   -4.978584|   -5.444207|   -5.032704|   -5.071864|   -7.622967|    1.456096|
|        7911|  8.0342e+00|   -4.843847|   -4.979666|   -5.444187|   -5.033597|   -5.072668|   -7.623111|    1.456139|
|        7912|  8.0341e+00|   -4.844662|   -4.980741|   -5.444162|   -5.034482|   -5.073468|   -7.623264|    1.456181|
|        7913|  8.0341e+00|   -4.845467|   -4.981809|   -5.444134|   -5.035359|   -5.074262|   -7.623423|    1.456222|
|        7914|  8.0340e+00|   -4.846260|   -4.982870|   -5.444103|   -5.036228|   -5.075051|   -7.623591|    1.456264|
|        7915|  8.0340e+00|   -4.847041|   -4.983923|   -5.444069|   -5.037088|   -5.075836|   -7.623766|    1.456305|
|        7916|  8.0339e+00|   -4.847811|   -4.984967|   -5.444031|   -5.037940|   -5.076615|   -7.623950|    1.456346|
|        7917|  8.0339e+00|   -4.848569|   -4.986003|   -5.443989|   -5.038784|   -5.077388|   -7.624140|    1.456387|
|        7918|  8.0338e+00|   -4.849315|   -4.987031|   -5.443943|   -5.039618|   -5.078156|   -7.624339|    1.456428|
|        7919|  8.0338e+00|   -4.850049|   -4.988050|   -5.443894|   -5.040444|   -5.078918|   -7.624545|    1.456468|
|        7920|  8.0337e+00|   -4.850772|   -4.989060|   -5.443843|   -5.041261|   -5.079674|   -7.624759|    1.456508|
|        7921|  8.0337e+00|   -4.851482|   -4.990062|   -5.443789|   -5.042069|   -5.080424|   -7.624980|    1.456548|
|        7922|  8.0336e+00|   -4.852179|   -4.991053|   -5.443731|   -5.042867|   -5.081169|   -7.625209|    1.456588|
|        7923|  8.0336e+00|   -4.852863|   -4.992035|   -5.443670|   -5.043655|   -5.081907|   -7.625446|    1.456628|
|        7924|  8.0335e+00|   -4.853536|   -4.993006|   -5.443607|   -5.044433|   -5.082639|   -7.625690|    1.456667|
|        7925|  8.0335e+00|   -4.854195|   -4.993967|   -5.443542|   -5.045202|   -5.083364|   -7.625943|    1.456706|
|        7926|  8.0334e+00|   -4.854841|   -4.994918|   -5.443473|   -5.045962|   -5.084084|   -7.626202|    1.456745|
|        7927|  8.0334e+00|   -4.855473|   -4.995859|   -5.443401|   -5.046711|   -5.084797|   -7.626470|    1.456783|
|        7928|  8.0334e+00|   -4.856092|   -4.996789|   -5.443327|   -5.047450|   -5.085503|   -7.626745|    1.456821|
|        7929|  8.0333e+00|   -4.856696|   -4.997707|   -5.443248|   -5.048177|   -5.086201|   -7.627028|    1.456859|
|        7930|  8.0333e+00|   -4.857286|   -4.998614|   -5.443165|   -5.048892|   -5.086892|   -7.627318|    1.456897|
|        7931|  8.0332e+00|   -4.857861|   -4.999510|   -5.443079|   -5.049596|   -5.087574|   -7.627616|    1.456935|
|        7932|  8.0332e+00|   -4.858421|   -5.000394|   -5.442991|   -5.050288|   -5.088249|   -7.627922|    1.456972|
|        7933|  8.0332e+00|   -4.858966|   -5.001266|   -5.442899|   -5.050969|   -5.088917|   -7.628236|    1.457009|
|        7934|  8.0331e+00|   -4.859497|   -5.002126|   -5.442803|   -5.051638|   -5.089576|   -7.628557|    1.457045|
|        7935|  8.0331e+00|   -4.860012|   -5.002974|   -5.442703|   -5.052295|   -5.090227|   -7.628885|    1.457082|
|        7936|  8.0331e+00|   -4.860511|   -5.003809|   -5.442599|   -5.052939|   -5.090869|   -7.629221|    1.457118|
|        7937|  8.0331e+00|   -4.860996|   -5.004632|   -5.442494|   -5.053571|   -5.091504|   -7.629565|    1.457154|
|        7938|  8.0330e+00|   -4.861466|   -5.005441|   -5.442387|   -5.054192|   -5.092131|   -7.629917|    1.457189|
|        7939|  8.0330e+00|   -4.861919|   -5.006237|   -5.442276|   -5.054799|   -5.092749|   -7.630276|    1.457225|
|        7940|  8.0329e+00|   -4.862357|   -5.007020|   -5.442162|   -5.055392|   -5.093357|   -7.630643|    1.457260|
|        7941|  8.0329e+00|   -4.862778|   -5.007788|   -5.442044|   -5.055973|   -5.093957|   -7.631018|    1.457294|
|        7942|  8.0328e+00|   -4.863183|   -5.008542|   -5.441924|   -5.056541|   -5.094547|   -7.631400|    1.457329|
|        7943|  8.0328e+00|   -4.863572|   -5.009283|   -5.441801|   -5.057095|   -5.095129|   -7.631789|    1.457363|
|        7944|  8.0327e+00|   -4.863943|   -5.010009|   -5.441674|   -5.057635|   -5.095701|   -7.632187|    1.457397|
|        7945|  8.0327e+00|   -4.864298|   -5.010720|   -5.441543|   -5.058161|   -5.096263|   -7.632592|    1.457430|
|        7946|  8.0326e+00|   -4.864636|   -5.011416|   -5.441408|   -5.058673|   -5.096815|   -7.633004|    1.457464|
|        7947|  8.0326e+00|   -4.864958|   -5.012099|   -5.441270|   -5.059171|   -5.097358|   -7.633425|    1.457497|
|        7948|  8.0326e+00|   -4.865262|   -5.012766|   -5.441128|   -5.059656|   -5.097891|   -7.633853|    1.457529|
|        7949|  8.0325e+00|   -4.865550|   -5.013420|   -5.440984|   -5.060126|   -5.098415|   -7.634289|    1.457562|
|        7950|  8.0325e+00|   -4.865821|   -5.014058|   -5.440836|   -5.060583|   -5.098929|   -7.634733|    1.457594|
+-----------------------------------------------------------------------+
|        File Writing Summary       |              Filename             |
+-----------------------------------------------------------------------+
|SU2 binary restart                 |restart_flow.dat                   |
|Paraview                           |flow.vtu                           |
|Paraview surface                   |surface_flow.vtu                   |
+-----------------------------------------------------------------------+
+--------------------------------------------------------------------------------------------------------------------+
|  Inner_Iter|   Time(sec)|    rms[Rho]|   rms[RhoU]|   rms[RhoV]|   rms[RhoW]|   rms[RhoE]|     rms[nu]|          CD|
+--------------------------------------------------------------------------------------------------------------------+
|        7951|  8.0353e+00|   -4.866074|   -5.014681|   -5.440685|   -5.061023|   -5.099432|   -7.635184|    1.457625|
|        7952|  8.0353e+00|   -4.866309|   -5.015288|   -5.440530|   -5.061450|   -5.099924|   -7.635644|    1.457657|
|        7953|  8.0353e+00|   -4.866526|   -5.015879|   -5.440372|   -5.061861|   -5.100406|   -7.636112|    1.457688|
|        7954|  8.0353e+00|   -4.866726|   -5.016454|   -5.440211|   -5.062257|   -5.100878|   -7.636588|    1.457719|
|        7955|  8.0352e+00|   -4.866907|   -5.017012|   -5.440045|   -5.062638|   -5.101338|   -7.637072|    1.457750|
|        7956|  8.0352e+00|   -4.867069|   -5.017554|   -5.439876|   -5.063004|   -5.101786|   -7.637564|    1.457780|
|        7957|  8.0352e+00|   -4.867213|   -5.018079|   -5.439702|   -5.063354|   -5.102223|   -7.638066|    1.457810|
|        7958|  8.0351e+00|   -4.867338|   -5.018588|   -5.439524|   -5.063688|   -5.102649|   -7.638575|    1.457840|
|        7959|  8.0351e+00|   -4.867445|   -5.019079|   -5.439341|   -5.064006|   -5.103063|   -7.639094|    1.457869|
|        7960|  8.0350e+00|   -4.867533|   -5.019552|   -5.439156|   -5.064308|   -5.103465|   -7.639621|    1.457898|
|        7961|  8.0350e+00|   -4.867602|   -5.020009|   -5.438968|   -5.064593|   -5.103855|   -7.640157|    1.457927|
|        7962|  8.0349e+00|   -4.867652|   -5.020447|   -5.438776|   -5.064862|   -5.104234|   -7.640702|    1.457956|
|        7963|  8.0349e+00|   -4.867683|   -5.020867|   -5.438582|   -5.065115|   -5.104600|   -7.641256|    1.457984|
|        7964|  8.0349e+00|   -4.867696|   -5.021269|   -5.438386|   -5.065351|   -5.104954|   -7.641819|    1.458012|
|        7965|  8.0348e+00|   -4.867691|   -5.021653|   -5.438187|   -5.065571|   -5.105296|   -7.642392|    1.458040|
|        7966|  8.0348e+00|   -4.867667|   -5.022018|   -5.437986|   -5.065774|   -5.105626|   -7.642974|    1.458067|
|        7967|  8.0347e+00|   -4.867624|   -5.022365|   -5.437783|   -5.065960|   -5.105943|   -7.643565|    1.458095|
|        7968|  8.0347e+00|   -4.867564|   -5.022694|   -5.437579|   -5.066131|   -5.106249|   -7.644166|    1.458122|
|        7969|  8.0346e+00|   -4.867486|   -5.023004|   -5.437373|   -5.066285|   -5.106543|   -7.644777|    1.458148|
|        7970|  8.0346e+00|   -4.867390|   -5.023295|   -5.437165|   -5.066422|   -5.106825|   -7.645398|    1.458175|

scontrol show job 1187094
JobId=1187094 JobName=m6_aoa40
   UserId=anthonyy(3152141) GroupId=anthonyy(3152141) MCS_label=N/A
   Priority=500444 Nice=0 Account=rrg-jphickey QOS=normal
   JobState=COMPLETING Reason=TimeLimit Dependency=(null)
   Requeue=0 Restarts=0 BatchFlag=1 Reboot=0 ExitCode=0:15
   RunTime=18:00:07 TimeLimit=18:00:00 TimeMin=N/A
   SubmitTime=2026-03-17T01:57:29 EligibleTime=2026-03-17T01:57:29
   AccrueTime=2026-03-17T01:57:29
   StartTime=2026-03-17T07:53:46 EndTime=2026-03-18T01:53:53 Deadline=N/A
   SuspendTime=None SecsPreSuspend=0 LastSchedEval=2026-03-17T07:53:46 Scheduler=Main
   Partition=compute AllocNode:Sid=tri-login06:3088022
   ReqNodeList=(null) ExcNodeList=(null)
   NodeList=tri[0010-0011]
   BatchHost=tri0010
   NumNodes=2 NumCPUs=384 NumTasks=128 CPUs/Task=1 ReqB:S:C:T=0:0:*:*
   ReqTRES=cpu=128,mem=1534000M,node=2,billing=128
   AllocTRES=cpu=384,mem=1534000M,node=2,billing=384
   Socks/Node=* NtasksPerN:B:S:C=64:0:*:* CoreSpec=*
   MinCPUsNode=64 MinMemoryNode=0 MinTmpDiskNode=0
   Features=(null) DelayBoot=00:00:00
   OverSubscribe=NO Contiguous=0 Licenses=(null) Network=(null)
   Command=/scratch/anthonyy/reentry/orion/config/run.sh
   WorkDir=/scratch/anthonyy/reentry/orion/cases/m6_aoa40
   Comment=/opt/slurm/bin/sbatch --export=NONE --get-user-env=L --job-name m6_aoa40 --nodes 2 --ntasks-per-node 64 --cpus-per-task 1 --mem 0 --time 18:00:00 --account rrg-jphickey --output orion_%j.out --error orion_%j.err --chdir /scratch/anthonyy/reentry/orion/cases/m6_aoa40 /scratch/anthonyy/reentry/orion/config/run.sh /scratch/anthonyy/reentry/orion/config/generated/m6_aoa40.cfg 
   StdErr=/scratch/anthonyy/reentry/orion/cases/m6_aoa40/orion_1187094.err
   StdIn=/dev/null
   StdOut=/scratch/anthonyy/reentry/orion/cases/m6_aoa40/orion_1187094.out
   TresPerTask=cpu=1
   

sacct -j 1187094
JobID           JobName    Account    Elapsed  MaxVMSize     MaxRSS  SystemCPU    UserCPU ExitCode 
------------ ---------- ---------- ---------- ---------- ---------- ---------- ---------- -------- 
1187094        m6_aoa40 rrg-jphic+   18:00:07                         14:27:25 94-12:48:+      0:0 
1187094.bat+      batch rrg-jphic+   18:00:08          0     12068K  00:00.108  00:00.628     0:15 
1187094.ext+     extern rrg-jphic+   18:00:07                         00:00:00   00:00:00      0:0 
1187094.0       SU2_CFD rrg-jphic+   18:00:07          0  10759964K   14:27:25 94-12:48:+     0:15 

