Nodes:  tri[0331,0339]
Tasks:  128
NPN:    64
Config: /scratch/anthonyy/reentry/orion/config/generated/m6_aoa40.cfg

-------------------------------------------------------------------------
|    ___ _   _ ___                                                      |
|   / __| | | |_  )   Release 7.5.1 "Blackbird"                         |
|   \__ \ |_| |/ /                                                      |
|   |___/\___//___|   Suite (Computational Fluid Dynamics Code)         |
|                                                                       |
-------------------------------------------------------------------------
| SU2 Project Website: https://su2code.github.io                        |
|                                                                       |
| The SU2 Project is maintained by the SU2 Foundation                   |
| (http://su2foundation.org)                                            |
-------------------------------------------------------------------------
| Copyright 2012-2023, SU2 Contributors                                 |
|                                                                       |
| SU2 is free software; you can redistribute it and/or                  |
| modify it under the terms of the GNU Lesser General Public            |
| License as published by the Free Software Foundation; either          |
| version 2.1 of the License, or (at your option) any later version.    |
|                                                                       |
| SU2 is distributed in the hope that it will be useful,                |
| but WITHOUT ANY WARRANTY; without even the implied warranty of        |
| MERCHANTABILITY or FITNESS FOR A PARTICULAR PURPOSE. See the GNU      |
| Lesser General Public License for more details.                       |
|                                                                       |
| You should have received a copy of the GNU Lesser General Public      |
| License along with SU2. If not, see <http://www.gnu.org/licenses/>.   |
-------------------------------------------------------------------------

Parsing config file for zone 0

----------------- Physical Case Definition ( Zone 0 ) -------------------
Compressible RANS equations.
Turbulence model: Spalart-Allmaras-noft2
Hybrid RANS/LES: No Hybrid RANS/LES
Mach number: 6.
Angle of attack (AoA): 40 deg, and angle of sideslip (AoS): 0 deg.
Reynolds number: 6.86229e+08. Reference length 5.
No restart solution, use the values at infinity (freestream).
Non-Dimensional simulation (V=1.0, Rho=1.0, T=1.0 at the farfield).
The reference area will be computed using y(2D) or z(3D) projection.
The semi-span will be computed using the max y(3D) value.
The reference length is 0.64607 m.
Reference origin for moment evaluation is (0.25, 0, 0).
Surface(s) where the force coefficients are evaluated: ORION_SURFACE.

Input mesh file name: ../../mesh/fine.su2

--------------- Space Numerical Integration ( Zone 0 ) ------------------
Jameson-Schmidt-Turkel scheme (2nd order in space) for the flow inviscid terms.
JST viscous coefficients (2nd & 4th): 0.5, 0.02.
The method includes a grid stretching correction (p = 0.3).
Scalar upwind solver for the turbulence model.
First order integration in space.
Average of gradients with correction (viscous flow terms).
Average of gradients with correction (viscous turbulence terms).
Gradient for upwind reconstruction: Green-Gauss.
Gradient for viscous and source terms: Green-Gauss.

--------------- Time Numerical Integration  ( Zone 0 ) ------------------
Local time stepping (steady state simulation).
Euler implicit method for the flow equations.
FGMRES is used for solving the linear system.
Using a ILU(0) preconditioning.
Convergence criteria of the linear solver: 1e-06.
Max number of linear iterations: 100.
CFL adaptation. Factor down: 0.5, factor up: 1.1,
                lower limit: 0.05, upper limit: 0.5,
                acceptable linear residual: 0.001.
Courant-Friedrichs-Lewy number:     0.03
Euler implicit time integration for the turbulence model.

------------------ Convergence Criteria  ( Zone 0 ) ---------------------
Maximum number of solver subiterations: 999999.
Begin convergence monitoring at iteration 5.
Residual minimum value: 1e-8.
Cauchy series min. value: 1e-10.
Number of Cauchy elements: 100.
Begin windowed time average at iteration 0.

-------------------- Output Information ( Zone 0 ) ----------------------
File writing frequency: 
+------------------------------------+
|                     File| Frequency|
+------------------------------------+
|                  RESTART|       150|
|                 PARAVIEW|       150|
|         SURFACE_PARAVIEW|       150|
+------------------------------------+
Writing the convergence history file every 1 inner iterations.
Writing the screen convergence history every 1 inner iterations.
The tabular file format is CSV (.csv).
Convergence history file name: history.
Forces breakdown file name: forces_breakdown.dat.
Surface file name: surface_flow.
Volume file name: flow.
Restart file name: restart_flow.

------------- Config File Boundary Information ( Zone 0 ) ---------------
+-----------------------------------------------------------------------+
|                        Marker Type|                        Marker Name|
+-----------------------------------------------------------------------+
|                          Far-field|                           FARFIELD|
+-----------------------------------------------------------------------+
|                     Heat flux wall|                      ORION_SURFACE|
+-----------------------------------------------------------------------+

-------------------- Output Preprocessing ( Zone 0 ) --------------------

WARNING: SURFACE_PRESSURE_DROP can only be computed for at least 2 surfaces (outlet, inlet, ...)

Screen output fields: INNER_ITER, WALL_TIME, RMS_DENSITY, RMS_MOMENTUM-X, RMS_MOMENTUM-Y, RMS_MOMENTUM-Z, RMS_ENERGY, RMS_NU_TILDE, DRAG
History output group(s): ITER, RMS_RES
Convergence field(s): RMS_DENSITY
Warning: No (valid) fields chosen for time convergence monitoring. Time convergence monitoring inactive.
Volume output fields: MACH, PRESSURE, TEMPERATURE, DENSITY, HEAT_FLUX, Y_PLUS, COORDINATES, SOLUTION

------------------- Geometry Preprocessing ( Zone 0 ) -------------------
Three dimensional problem.
62211324 grid points before partitioning.
190879888 volume elements before partitioning.
2 surface markers.
4104 boundary elements in index 0 (Marker = FARFIELD).
1824836 boundary elements in index 1 (Marker = ORION_SURFACE).
Executing the partitioning functions.
Building the graph adjacency structure.
Calling ParMETIS... graph partitioning complete (4959327 edge cuts).
Distributing ParMETIS coloring.
Rebalancing vertices.
Rebalancing volume element connectivity.
Rebalancing markers and surface elements.
66952290 vertices including ghost points. 
197997438 interior elements including halo cells. 
103171259 tetrahedra.
94500655 prisms.
325524 pyramids.
Establishing MPI communication patterns.
Setting point connectivity.
Renumbering points (Reverse Cuthill McKee Ordering).
Recomputing point connectivity.
Setting element connectivity.
Checking the numerical grid orientation.
All volume elements are correctly orientend.
All surface elements are correctly orientend.
Identifying edges and vertices.
Setting the control volume structure.
Volume of the computational grid: 535693.
Searching for the closest normal neighbors to the surfaces.
Storing a mapping from global to local point index.
Compute the surface curvature.
Max K: 132.896. Mean K: 3.9104. Standard deviation K: 7.49569.
Checking for periodicity.
Computing mesh quality statistics for the dual control volumes.
+--------------------------------------------------------------+
|           Mesh Quality Metric|        Minimum|        Maximum|
+--------------------------------------------------------------+
|    Orthogonality Angle (deg.)|        53.0661|             90|
|     CV Face Area Aspect Ratio|        1.01143|        75298.5|
|           CV Sub-Volume Ratio|        1.00029|        45.0258|
+--------------------------------------------------------------+
Finding max control volume width.
Communicating number of neighbors.
Reference area = 11.531 m^2.
Semi-span length = 2.49999 m.
Wetted area = 57.9072 m^2.
Area projection in the x-plane = 19.6343 m^2, y-plane = 11.531 m^2, z-plane = 11.531 m^2.
Max. coordinate in the x-direction = 2.575 m, y-direction = 2.49999 m, z-direction = 2.49999 m.
Min. coordinate in the x-direction = -0.71 m, y-direction = -2.49999 m, z-direction = -2.5 m.
Computing wall distances.

-------------------- Solver Preprocessing ( Zone 0 ) --------------------
Viscous flow: Computing pressure using the ideal gas law
based on the free-stream temperature and a density computed
from the Reynolds number.
Force coefficients computed using free-stream values.

-- Models:
+------------------------------------------------------------------------------+
|          Viscosity Model|        Conductivity Model|              Fluid Model|
+------------------------------------------------------------------------------+
|               SUTHERLAND|          CONSTANT_PRANDTL|             STANDARD_AIR|
+------------------------------------------------------------------------------+
-- Fluid properties:
+------------------------------------------------------------------------------+
|                  Name|    Dim. value|    Ref. value|      Unit|Non-dim. value|
+------------------------------------------------------------------------------+
|        Ref. Viscosity|     1.716e-05|       2455.73|   N.s/m^2|   6.98773e-09|
|      Sutherland Temp.|        273.15|        288.15|         K|      0.947944|
|     Sutherland Const.|         110.4|        288.15|         K|      0.383134|
+------------------------------------------------------------------------------+
|        Prandtl (Lam.)|             -|             -|         -|          0.72|
|       Prandtl (Turb.)|             -|             -|         -|           0.9|
+------------------------------------------------------------------------------+
|          Gas Constant|       287.058|       14467.7|  N.m/kg.K|     0.0198413|
|      Spec. Heat Ratio|             -|             -|         -|           1.4|
+------------------------------------------------------------------------------+
-- Initial and free-stream conditions:
+------------------------------------------------------------------------------+
|                  Name|    Dim. value|    Ref. value|      Unit|Non-dim. value|
+------------------------------------------------------------------------------+
|       Static Pressure|       99485.6|   5.01407e+06|        Pa|     0.0198413|
|               Density|       1.20274|       1.20274|    kg/m^3|             1|
|           Temperature|        288.15|        288.15|         K|             1|
|          Total Energy|   2.29123e+06|   4.16887e+06|   m^2/s^2|      0.549603|
|            Velocity-X|        1564.1|       2041.78|       m/s|      0.766044|
|            Velocity-Y|             0|       2041.78|       m/s|             0|
|            Velocity-Z|       1312.43|       2041.78|       m/s|      0.642788|
|    Velocity Magnitude|       2041.78|       2041.78|       m/s|             1|
+------------------------------------------------------------------------------+
|             Viscosity|    1.7893e-05|       2455.73|   N.s/m^2|    7.2862e-09|
|          Conductivity|             -|   3.55289e+07|   W/m^2.K|             -|
|     Turb. Kin. Energy|       15633.3|   4.16887e+06|   m^2/s^2|       0.00375|
|     Spec. Dissipation|   1.05085e+08|       2041.78|       1/s|       51467.1|
+------------------------------------------------------------------------------+
|           Mach Number|             -|             -|         -|             6|
|       Reynolds Number|             -|             -|         -|   6.86229e+08|
+------------------------------------------------------------------------------+
Initialize Jacobian structure (Navier-Stokes). MG level: 0.
Initialize Jacobian structure (SA model).

------------------- Numerics Preprocessing ( Zone 0 ) -------------------

----------------- Integration Preprocessing ( Zone 0 ) ------------------

------------------- Iteration Preprocessing ( Zone 0 ) ------------------
Euler/Navier-Stokes/RANS fluid iteration.

------------------------------ Begin Solver -----------------------------

Simulation Run using the Single-zone Driver
WARNING: SU2 was not compiled for an AVX-capable architecture. Performance could be better,
         see https://su2code.github.io/docs_v7/Build-SU2-Linux-MacOS/#compiler-optimizations
+--------------------------------------------------------------------------------------------------------------------+
|  Inner_Iter|   Time(sec)|    rms[Rho]|   rms[RhoU]|   rms[RhoV]|   rms[RhoW]|   rms[RhoE]|     rms[nu]|          CD|
+--------------------------------------------------------------------------------------------------------------------+
|           0|  6.2005e+00|   -5.302696|  -16.101266|  -17.636714|  -16.176521|   -5.547244|  -13.239242|    0.384420|
|           1|  5.4945e+00|   -5.453200|   -5.606389|   -6.422844|   -5.640393|   -5.688211|  -13.031289|    0.401832|
|           2|  5.2114e+00|   -5.454589|   -5.615963|   -6.430126|   -5.648217|   -5.689970|  -13.053007|    0.420800|
|           3|  5.0888e+00|   -5.455945|   -5.624937|   -6.437521|   -5.655417|   -5.691510|  -13.074241|    0.441433|
|           4|  4.9964e+00|   -5.457267|   -5.633512|   -6.445042|   -5.662169|   -5.692861|  -13.095278|    0.463854|
|           5|  4.9270e+00|   -5.458555|   -5.641833|   -6.452692|   -5.668599|   -5.694041|  -13.116470|    0.488200|
|           6|  4.8837e+00|   -5.459800|   -5.650014|   -6.460466|   -5.674801|   -5.695060|  -13.138195|    0.514617|
|           7|  4.8594e+00|   -5.460992|   -5.658143|   -6.468341|   -5.680849|   -5.695918|  -13.156593|    0.543265|
|           8|  4.8766e+00|   -5.462113|   -5.666291|   -6.476274|   -5.686802|   -5.696608|  -13.173599|    0.574317|
|           9|  4.8875e+00|   -5.463143|   -5.674514|   -6.484202|   -5.692707|   -5.697118|  -13.190123|    0.607961|
|          10|  4.8973e+00|   -5.464056|   -5.682851|   -6.492036|   -5.698601|   -5.697429|  -13.206435|    0.644401|
|          11|  4.9108e+00|   -5.464820|   -5.691311|   -6.499657|   -5.704500|   -5.697516|  -13.222657|    0.683861|
|          12|  4.9262e+00|   -5.465401|   -5.699867|   -6.506923|   -5.710401|   -5.697347|  -13.239208|    0.726594|
|          13|  4.9329e+00|   -5.465757|   -5.708554|   -6.513665|   -5.716351|   -5.696886|  -13.257792|    0.772886|
|          14|  4.9395e+00|   -5.465845|   -5.717382|   -6.519655|   -5.722409|   -5.696091|  -13.275976|    0.823057|
|          15|  4.9447e+00|   -5.465626|   -5.726310|   -6.524547|   -5.728606|   -5.694925|  -13.293268|    0.877468|
|          16|  4.9480e+00|   -5.465055|   -5.735253|   -6.527967|   -5.734967|   -5.693336|  -13.310024|    0.936529|
|          17|  4.9529e+00|   -5.464082|   -5.744054|   -6.529504|   -5.741510|   -5.691260|  -13.324750|    1.000709|
|          18|  4.9872e+00|   -5.462671|   -5.752516|   -6.528728|   -5.748245|   -5.688634|  -13.338369|    1.070544|
|          19|  5.0188e+00|   -5.460805|   -5.760377|   -6.525283|   -5.755164|   -5.685408|  -13.351958|    1.146627|
|          20|  5.0475e+00|   -5.458498|   -5.767340|   -6.518921|   -5.762259|   -5.681548|  -13.365347|    1.229628|
|          21|  5.0716e+00|   -5.455804|   -5.773107|   -6.509535|   -5.769521|   -5.677055|  -13.377817|    1.320298|
|          22|  5.0929e+00|   -5.452875|   -5.777557|   -6.497197|   -5.777017|   -5.672043|  -13.389182|    1.419509|
|          23|  5.1132e+00|   -5.449941|   -5.780720|   -6.482183|   -5.784798|   -5.666728|  -13.399542|    1.528245|
|          24|  5.1319e+00|   -5.447257|   -5.782513|   -6.464826|   -5.792697|   -5.661413|  -13.410277|    1.647561|
|          25|  5.1486e+00|   -5.445196|   -5.782905|   -6.445405|   -5.800482|   -5.656605|  -13.420329|    1.778527|
|          26|  5.1781e+00|   -5.444216|   -5.781714|   -6.423984|   -5.807740|   -5.652962|  -13.429618|    1.912097|
|          27|  5.2092e+00|   -5.444737|   -5.778324|   -6.402468|   -5.813636|   -5.651430|  -13.437349|    2.046051|
|          28|  5.2420e+00|   -5.446884|   -5.772457|   -6.381057|   -5.817636|   -5.652161|  -13.442991|    2.179517|
|          29|  5.2795e+00|   -5.450628|   -5.764032|   -6.359536|   -5.819323|   -5.655014|  -13.446504|    2.311302|
|          30|  5.3148e+00|   -5.455863|   -5.753367|   -6.337766|   -5.818582|   -5.659785|  -13.448806|    2.440069|
|          31|  5.3510e+00|   -5.462460|   -5.741265|   -6.315708|   -5.815676|   -5.666302|  -13.449524|    2.564374|
|          32|  5.3830e+00|   -5.470213|   -5.728696|   -6.293401|   -5.811081|   -5.674363|  -13.448778|    2.682671|
|          33|  5.4125e+00|   -5.478787|   -5.716541|   -6.270926|   -5.805317|   -5.683638|  -13.446612|    2.793318|
|          34|  5.4380e+00|   -5.487499|   -5.705220|   -6.248369|   -5.798541|   -5.693381|  -13.443567|    2.894593|
|          35|  5.4617e+00|   -5.495249|   -5.694707|   -6.225810|   -5.790682|   -5.702313|  -13.439542|    2.984719|
|          36|  5.4756e+00|   -5.500664|   -5.684856|   -6.203350|   -5.781765|   -5.708742|  -13.434769|    3.061896|
|          37|  5.4881e+00|   -5.502327|   -5.675572|   -6.181164|   -5.772029|   -5.710818|  -13.429449|    3.124365|
|          38|  5.5023e+00|   -5.499045|   -5.666791|   -6.159522|   -5.761701|   -5.706899|  -13.423427|    3.170480|
|          39|  5.5147e+00|   -5.490195|   -5.658488|   -6.138783|   -5.750955|   -5.696055|  -13.417095|    3.198794|
|          40|  5.5243e+00|   -5.475996|   -5.650790|   -6.119359|   -5.739922|   -5.678471|  -13.410564|    3.208170|
|          41|  5.5346e+00|   -5.457390|   -5.643880|   -6.101664|   -5.728601|   -5.655326|  -13.404049|    3.197921|
|          42|  5.5466e+00|   -5.435798|   -5.638059|   -6.086059|   -5.716940|   -5.628437|  -13.397424|    3.167971|
|          43|  5.5577e+00|   -5.412777|   -5.633669|   -6.072761|   -5.704842|   -5.599797|  -13.390607|    3.119017|
|          44|  5.5666e+00|   -5.389801|   -5.630994|   -6.061765|   -5.692189|   -5.571291|  -13.383717|    3.052505|
|          45|  5.5752e+00|   -5.368110|   -5.630187|   -6.052853|   -5.678889|   -5.544513|  -13.376670|    2.970419|
|          46|  5.5854e+00|   -5.348562|   -5.631248|   -6.045723|   -5.664958|   -5.520565|  -13.369599|    2.874795|
|          47|  5.5953e+00|   -5.331458|   -5.634184|   -6.040050|   -5.650514|   -5.499794|  -13.362094|    2.767462|
|          48|  5.6054e+00|   -5.316838|   -5.639064|   -6.035111|   -5.635622|   -5.482244|  -13.354057|    2.650020|
|          49|  5.6137e+00|   -5.304757|   -5.645242|   -6.028902|   -5.620273|   -5.468081|  -13.345503|    2.524169|
|          50|  5.6232e+00|   -5.295216|   -5.650922|   -6.019087|   -5.604555|   -5.457468|  -13.336589|    2.392357|
|          51|  5.6307e+00|   -5.287707|   -5.654718|   -6.004861|   -5.588888|   -5.449782|  -13.327106|    2.257309|
|          52|  5.6371e+00|   -5.281503|   -5.655576|   -5.986540|   -5.573797|   -5.444014|  -13.316963|    2.121635|
|          53|  5.6434e+00|   -5.275920|   -5.652616|   -5.965115|   -5.559775|   -5.439100|  -13.306522|    1.987778|
|          54|  5.6501e+00|   -5.270411|   -5.645248|   -5.941960|   -5.547237|   -5.434070|  -13.296337|    1.858026|
|          55|  5.6562e+00|   -5.264639|   -5.633342|   -5.918537|   -5.536490|   -5.428201|  -13.286778|    1.734510|
|          56|  5.6606e+00|   -5.258518|   -5.617348|   -5.896188|   -5.527699|   -5.421153|  -13.277527|    1.619195|
|          57|  5.6655e+00|   -5.252203|   -5.598295|   -5.876015|   -5.520840|   -5.413035|  -13.268335|    1.513848|
|          58|  5.6696e+00|   -5.246032|   -5.577709|   -5.858825|   -5.515650|   -5.404362|  -13.258320|    1.419995|
|          59|  5.6752e+00|   -5.240435|   -5.557377|   -5.845097|   -5.511610|   -5.395934|  -13.247319|    1.338862|
|          60|  5.6808e+00|   -5.235746|   -5.538989|   -5.834953|   -5.508003|   -5.388544|  -13.235483|    1.271359|
|          61|  5.6855e+00|   -5.232073|   -5.523930|   -5.828176|   -5.504082|   -5.382720|  -13.222721|    1.218073|
|          62|  5.6899e+00|   -5.229232|   -5.513244|   -5.824243|   -5.499248|   -5.378559|  -13.209463|    1.179269|
|          63|  5.6947e+00|   -5.226761|   -5.507600|   -5.822367|   -5.493250|   -5.375646|  -13.196649|    1.154899|
|          64|  5.6982e+00|   -5.224051|   -5.507123|   -5.821627|   -5.486326|   -5.373197|  -13.185281|    1.144634|
|          65|  5.7027e+00|   -5.220535|   -5.511373|   -5.821147|   -5.479129|   -5.370251|  -13.175854|    1.147899|
|          66|  5.7065e+00|   -5.215892|   -5.519335|   -5.820305|   -5.472529|   -5.365991|  -13.168861|    1.163898|
|          67|  5.7104e+00|   -5.210201|   -5.529512|   -5.818899|   -5.467389|   -5.360085|  -13.164625|    1.191642|
|          68|  5.7146e+00|   -5.203959|   -5.540099|   -5.817179|   -5.464377|   -5.352902|  -13.163249|    1.229955|
|          69|  5.7184e+00|   -5.198004|   -5.549354|   -5.815735|   -5.463860|   -5.345485|  -13.163835|    1.277477|
|          70|  5.7222e+00|   -5.193294|   -5.556082|   -5.815256|   -5.465853|   -5.339265|  -13.164761|    1.332677|
|          71|  5.7256e+00|   -5.190668|   -5.559997|   -5.816307|   -5.470048|   -5.335600|  -13.164803|    1.393944|
|          72|  5.7291e+00|   -5.190737|   -5.561706|   -5.819164|   -5.475882|   -5.335517|  -13.163820|    1.459749|
|          73|  5.7320e+00|   -5.193793|   -5.562270|   -5.823722|   -5.482621|   -5.339514|  -13.162303|    1.528599|
|          74|  5.7348e+00|   -5.199657|   -5.562714|   -5.829523|   -5.489464|   -5.347385|  -13.158847|    1.599014|
|          75|  5.7375e+00|   -5.207721|   -5.563714|   -5.835895|   -5.495700|   -5.358289|  -13.153424|    1.669483|
|          76|  5.7408e+00|   -5.217055|   -5.565510|   -5.842110|   -5.500857|   -5.370843|  -13.147012|    1.738532|
|          77|  5.7439e+00|   -5.226567|   -5.567978|   -5.847571|   -5.504784|   -5.383320|  -13.140759|    1.804793|
|          78|  5.7471e+00|   -5.235251|   -5.570855|   -5.852009|   -5.507636|   -5.394067|  -13.135655|    1.867027|
|          79|  5.7513e+00|   -5.242395|   -5.573925|   -5.855530|   -5.509788|   -5.401912|  -13.132119|    1.924130|
|          80|  5.7541e+00|   -5.247699|   -5.577002|   -5.858592|   -5.511731|   -5.406521|  -13.130524|    1.975152|
|          81|  5.7563e+00|   -5.251394|   -5.580132|   -5.861871|   -5.513931|   -5.408583|  -13.131203|    2.019298|
|          82|  5.7583e+00|   -5.254203|   -5.583613|   -5.866063|   -5.516710|   -5.409616|  -13.134032|    2.055927|
|          83|  5.7604e+00|   -5.257103|   -5.587868|   -5.871657|   -5.520194|   -5.411399|  -13.138058|    2.084562|
|          84|  5.7627e+00|   -5.260914|   -5.593212|   -5.878802|   -5.524312|   -5.415252|  -13.142195|    2.104890|
|          85|  5.7644e+00|   -5.266093|   -5.599755|   -5.887270|   -5.528858|   -5.421785|  -13.145660|    2.116776|
|          86|  5.7664e+00|   -5.272640|   -5.607322|   -5.896523|   -5.533554|   -5.430822|  -13.148324|    2.120274|
|          87|  5.7684e+00|   -5.280075|   -5.615544|   -5.905874|   -5.538113|   -5.441487|  -13.150252|    2.115640|
|          88|  5.7722e+00|   -5.287632|   -5.624006|   -5.914647|   -5.542300|   -5.452486|  -13.151350|    2.103359|
|          89|  5.7771e+00|   -5.294478|   -5.632277|   -5.922335|   -5.546006|   -5.462439|  -13.151763|    2.084147|
|          90|  5.7805e+00|   -5.299974|   -5.640018|   -5.928709|   -5.549268|   -5.470281|  -13.151863|    2.058952|
|          91|  5.7830e+00|   -5.303835|   -5.646980|   -5.933821|   -5.552244|   -5.475526|  -13.152168|    2.028937|
|          92|  5.7854e+00|   -5.306195|   -5.652988|   -5.937960|   -5.555173|   -5.478370|  -13.153171|    1.995422|
|          93|  5.7877e+00|   -5.307522|   -5.657908|   -5.941542|   -5.558315|   -5.479527|  -13.154967|    1.959785|
|          94|  5.7908e+00|   -5.308476|   -5.661628|   -5.945022|   -5.561897|   -5.479995|  -13.157613|    1.923411|
|          95|  5.7932e+00|   -5.309784|   -5.664159|   -5.948802|   -5.566069|   -5.480834|  -13.161102|    1.887640|
|          96|  5.7945e+00|   -5.312099|   -5.665610|   -5.953168|   -5.570864|   -5.482972|  -13.165448|    1.853729|
|          97|  5.7976e+00|   -5.315892|   -5.666181|   -5.958257|   -5.576182|   -5.487065|  -13.170331|    1.822804|
|          98|  5.7992e+00|   -5.321346|   -5.666152|   -5.964041|   -5.581784|   -5.493382|  -13.174953|    1.795832|
|          99|  5.8017e+00|   -5.328315|   -5.665889|   -5.970348|   -5.587327|   -5.501765|  -13.178657|    1.773595|
|         100|  5.8031e+00|   -5.336348|   -5.665821|   -5.976891|   -5.592419|   -5.511671|  -13.181059|    1.756687|
|         101|  5.8047e+00|   -5.344774|   -5.666328|   -5.983322|   -5.596710|   -5.522271|  -13.182163|    1.745507|
|         102|  5.8069e+00|   -5.352767|   -5.667694|   -5.989283|   -5.599963|   -5.532505|  -13.181964|    1.740259|
|         103|  5.8094e+00|   -5.359491|   -5.670051|   -5.994483|   -5.602102|   -5.541266|  -13.180625|    1.740960|
|         104|  5.8100e+00|   -5.364282|   -5.673417|   -5.998733|   -5.603225|   -5.547621|  -13.178498|    1.747448|
|         105|  5.8113e+00|   -5.366785|   -5.677691|   -6.001985|   -5.603574|   -5.551033|  -13.176086|    1.759387|
|         106|  5.8126e+00|   -5.367033|   -5.682648|   -6.004325|   -5.603469|   -5.551493|  -13.173932|    1.776280|
|         107|  5.8134e+00|   -5.365422|   -5.687961|   -6.005953|   -5.603239|   -5.549520|  -13.172136|    1.797477|
|         108|  5.8140e+00|   -5.362592|   -5.693203|   -6.007112|   -5.603151|   -5.545978|  -13.170743|    1.822181|
|         109|  5.8152e+00|   -5.359299|   -5.697973|   -6.008047|   -5.603383|   -5.541897|  -13.169789|    1.849491|
|         110|  5.8153e+00|   -5.356236|   -5.701915|   -6.008933|   -5.603994|   -5.538202|  -13.169291|    1.878474|
|         111|  5.8165e+00|   -5.353949|   -5.704756|   -6.009864|   -5.604940|   -5.535600|  -13.169261|    1.908198|
|         112|  5.8177e+00|   -5.352780|   -5.706319|   -6.010832|   -5.606099|   -5.534511|  -13.169389|    1.937765|
|         113|  5.8186e+00|   -5.352882|   -5.706546|   -6.011752|   -5.607302|   -5.535099|  -13.169501|    1.966328|
|         114|  5.8192e+00|   -5.354223|   -5.705569|   -6.012488|   -5.608369|   -5.537282|  -13.169450|    1.993118|
|         115|  5.8199e+00|   -5.356591|   -5.703650|   -6.012880|   -5.609118|   -5.540751|  -13.168933|    2.017456|
|         116|  5.8213e+00|   -5.359594|   -5.701142|   -6.012788|   -5.609391|   -5.544978|  -13.167722|    2.038765|
|         117|  5.8219e+00|   -5.362725|   -5.698436|   -6.012110|   -5.609055|   -5.549317|  -13.165429|    2.056579|
|         118|  5.8222e+00|   -5.365443|   -5.695910|   -6.010790|   -5.608028|   -5.553110|  -13.161933|    2.070549|
|         119|  5.8226e+00|   -5.367243|   -5.693902|   -6.008825|   -5.606308|   -5.555735|  -13.157292|    2.080444|
|         120|  5.8236e+00|   -5.367706|   -5.692647|   -6.006248|   -5.603955|   -5.556685|  -13.151801|    2.086159|
|         121|  5.8245e+00|   -5.366590|   -5.692265|   -6.003146|   -5.601107|   -5.555672|  -13.145719|    2.087714|
|         122|  5.8263e+00|   -5.363852|   -5.692728|   -5.999631|   -5.597952|   -5.552640|  -13.139188|    2.085247|
|         123|  5.8276e+00|   -5.359667|   -5.693904|   -5.995849|   -5.594713|   -5.547796|  -13.132563|    2.079014|
|         124|  5.8282e+00|   -5.354415|   -5.695571|   -5.991974|   -5.591632|   -5.541579|  -13.126225|    2.069379|
|         125|  5.8289e+00|   -5.348590|   -5.697412|   -5.988191|   -5.588924|   -5.534577|  -13.120673|    2.056804|
|         126|  5.8296e+00|   -5.342747|   -5.699059|   -5.984694|   -5.586764|   -5.527461|  -13.116151|    2.041828|
|         127|  5.8309e+00|   -5.337413|   -5.700135|   -5.981655|   -5.585255|   -5.520883|  -13.112839|    2.025056|
|         128|  5.8323e+00|   -5.333062|   -5.700393|   -5.979216|   -5.584431|   -5.515454|  -13.111143|    2.007123|
|         129|  5.8335e+00|   -5.330080|   -5.699760|   -5.977464|   -5.584261|   -5.511698|  -13.111187|    1.988670|
|         130|  5.8330e+00|   -5.328695|   -5.698337|   -5.976396|   -5.584631|   -5.509950|  -13.112502|    1.970326|
|         131|  5.8330e+00|   -5.328911|   -5.696349|   -5.975938|   -5.585374|   -5.510265|  -13.114476|    1.952686|
|         132|  5.8330e+00|   -5.330555|   -5.694070|   -5.975945|   -5.586286|   -5.512455|  -13.116309|    1.936294|
|         133|  5.8336e+00|   -5.333250|   -5.691845|   -5.976221|   -5.587142|   -5.516057|  -13.117366|    1.921633|
|         134|  5.8343e+00|   -5.336471|   -5.690029|   -5.976561|   -5.587745|   -5.520422|  -13.117215|    1.909111|
|         135|  5.8344e+00|   -5.339630|   -5.688851|   -5.976764|   -5.587951|   -5.524775|  -13.115853|    1.899051|
|         136|  5.8344e+00|   -5.342162|   -5.688417|   -5.976695|   -5.587709|   -5.528336|  -13.113298|    1.891690|
|         137|  5.8350e+00|   -5.343618|   -5.688685|   -5.976290|   -5.587069|   -5.530461|  -13.109789|    1.887175|
|         138|  5.8354e+00|   -5.343775|   -5.689543|   -5.975577|   -5.586173|   -5.530793|  -13.105717|    1.885563|
|         139|  5.8362e+00|   -5.342670|   -5.690811|   -5.974671|   -5.585222|   -5.529331|  -13.101585|    1.886826|
|         140|  5.8365e+00|   -5.340572|   -5.692254|   -5.973742|   -5.584438|   -5.526408|  -13.097984|    1.890857|
|         141|  5.8371e+00|   -5.337929|   -5.693626|   -5.972999|   -5.584018|   -5.522638|  -13.095212|    1.897470|
|         142|  5.8378e+00|   -5.335266|   -5.694710|   -5.972635|   -5.584089|   -5.518754|  -13.093555|    1.906417|
|         143|  5.8385e+00|   -5.333111|   -5.695405|   -5.972804|   -5.584701|   -5.515504|  -13.093292|    1.917388|
|         144|  5.8389e+00|   -5.331904|   -5.695718|   -5.973576|   -5.585811|   -5.513515|  -13.094722|    1.930027|
|         145|  5.8393e+00|   -5.331943|   -5.695757|   -5.974915|   -5.587287|   -5.513229|  -13.097454|    1.943943|
|         146|  5.8397e+00|   -5.333274|   -5.695649|   -5.976690|   -5.588939|   -5.514737|  -13.100802|    1.958720|
|         147|  5.8399e+00|   -5.335713|   -5.695503|   -5.978683|   -5.590531|   -5.517813|  -13.104103|    1.973936|
|         148|  5.8398e+00|   -5.338886|   -5.695450|   -5.980641|   -5.591838|   -5.521969|  -13.106688|    1.989175|
|         149|  5.8404e+00|   -5.342274|   -5.695638|   -5.982313|   -5.592680|   -5.526528|  -13.108048|    2.004036|
|         150|  5.8406e+00|   -5.345328|   -5.696141|   -5.983488|   -5.592957|   -5.530747|  -13.108077|    2.018145|
+-----------------------------------------------------------------------+
|        File Writing Summary       |              Filename             |
+-----------------------------------------------------------------------+
|SU2 binary restart                 |restart_flow.dat                   |
|Paraview                           |flow.vtu                           |
|Paraview surface                   |surface_flow.vtu                   |
+-----------------------------------------------------------------------+
+--------------------------------------------------------------------------------------------------------------------+
|  Inner_Iter|   Time(sec)|    rms[Rho]|   rms[RhoU]|   rms[RhoV]|   rms[RhoW]|   rms[RhoE]|     rms[nu]|          CD|
+--------------------------------------------------------------------------------------------------------------------+
|         151|  6.0003e+00|   -5.347565|   -5.696956|   -5.984046|   -5.592679|   -5.533943|  -13.106850|    2.031161|
|         152|  6.0011e+00|   -5.348646|   -5.697995|   -5.983962|   -5.591951|   -5.535616|  -13.104509|    2.042783|
|         153|  6.0008e+00|   -5.348446|   -5.699108|   -5.983317|   -5.590950|   -5.535553|  -13.101394|    2.052759|
|         154|  6.0002e+00|   -5.347079|   -5.700136|   -5.982265|   -5.589884|   -5.533862|  -13.097916|    2.060889|
|         155|  6.0001e+00|   -5.344847|   -5.700899|   -5.981010|   -5.588956|   -5.530918|  -13.094544|    2.067030|
|         156|  5.9996e+00|   -5.342173|   -5.701227|   -5.979769|   -5.588323|   -5.527288|  -13.091691|    2.071096|
|         157|  5.9988e+00|   -5.339522|   -5.701009|   -5.978730|   -5.588065|   -5.523605|  -13.089587|    2.073058|
|         158|  5.9977e+00|   -5.337326|   -5.700210|   -5.978034|   -5.588189|   -5.520473|  -13.088355|    2.072943|
|         159|  5.9967e+00|   -5.335920|   -5.698906|   -5.977732|   -5.588615|   -5.518362|  -13.088334|    2.070833|
|         160|  5.9960e+00|   -5.335523|   -5.697269|   -5.977795|   -5.589211|   -5.517609|  -13.089412|    2.066855|
|         161|  5.9956e+00|   -5.336151|   -5.695497|   -5.978102|   -5.589800|   -5.518272|  -13.091065|    2.061181|
|         162|  5.9952e+00|   -5.337608|   -5.693775|   -5.978471|   -5.590187|   -5.520116|  -13.092841|    2.054019|
|         163|  5.9942e+00|   -5.339542|   -5.692267|   -5.978698|   -5.590205|   -5.522699|  -13.094120|    2.045606|
|         164|  5.9932e+00|   -5.341489|   -5.691122|   -5.978586|   -5.589733|   -5.525426|  -13.094365|    2.036201|
|         165|  5.9937e+00|   -5.342967|   -5.690442|   -5.977981|   -5.588723|   -5.527664|  -13.093368|    2.026074|
|         166|  5.9938e+00|   -5.343570|   -5.690240|   -5.976806|   -5.587223|   -5.528844|  -13.091097|    2.015503|
|         167|  5.9935e+00|   -5.343023|   -5.690448|   -5.975064|   -5.585353|   -5.528563|  -13.087769|    2.004760|
|         168|  5.9932e+00|   -5.341250|   -5.690925|   -5.972845|   -5.583291|   -5.526668|  -13.083640|    1.994107|
|         169|  5.9929e+00|   -5.338380|   -5.691459|   -5.970300|   -5.581240|   -5.523283|  -13.079000|    1.983788|
|         170|  5.9931e+00|   -5.334718|   -5.691824|   -5.967622|   -5.579392|   -5.518763|  -13.074192|    1.974031|
|         171|  5.9927e+00|   -5.330678|   -5.691795|   -5.965019|   -5.577897|   -5.513628|  -13.069579|    1.965034|
|         172|  5.9925e+00|   -5.326717|   -5.691190|   -5.962685|   -5.576849|   -5.508473|  -13.065559|    1.956972|
|         173|  5.9919e+00|   -5.323278|   -5.689927|   -5.960775|   -5.576271|   -5.503888|  -13.062557|    1.949990|
|         174|  5.9915e+00|   -5.320722|   -5.688034|   -5.959380|   -5.576110|   -5.500377|  -13.061177|    1.944201|
|         175|  5.9912e+00|   -5.319316|   -5.685661|   -5.958511|   -5.576258|   -5.498336|  -13.061354|    1.939686|
|         176|  5.9911e+00|   -5.319141|   -5.683042|   -5.958096|   -5.576560|   -5.497927|  -13.062561|    1.936498|
|         177|  5.9905e+00|   -5.320073|   -5.680433|   -5.957990|   -5.576837|   -5.499029|  -13.064369|    1.934655|
|         178|  5.9896e+00|   -5.321831|   -5.678076|   -5.958006|   -5.576920|   -5.501308|  -13.066150|    1.934148|
|         179|  5.9894e+00|   -5.323973|   -5.676189|   -5.957940|   -5.576665|   -5.504208|  -13.067357|    1.934940|
|         180|  5.9889e+00|   -5.325984|   -5.674917|   -5.957604|   -5.575989|   -5.507065|  -13.067555|    1.936966|
|         181|  5.9882e+00|   -5.327376|   -5.674286|   -5.956871|   -5.574885|   -5.509208|  -13.066450|    1.940140|
|         182|  5.9883e+00|   -5.327758|   -5.674226|   -5.955688|   -5.573432|   -5.510066|  -13.064072|    1.944353|
|         183|  5.9879e+00|   -5.326928|   -5.674590|   -5.954093|   -5.571773|   -5.509309|  -13.060596|    1.949478|
|         184|  5.9874e+00|   -5.324910|   -5.675162|   -5.952203|   -5.570091|   -5.506905|  -13.056372|    1.955373|
|         185|  5.9867e+00|   -5.321945|   -5.675695|   -5.950198|   -5.568573|   -5.503126|  -13.051877|    1.961886|
|         186|  5.9865e+00|   -5.318434|   -5.675940|   -5.948287|   -5.567380|   -5.498482|  -13.047590|    1.968853|
|         187|  5.9859e+00|   -5.314871|   -5.675709|   -5.946682|   -5.566624|   -5.493643|  -13.043938|    1.976109|
|         188|  5.9853e+00|   -5.311760|   -5.674931|   -5.945555|   -5.566348|   -5.489308|  -13.041457|    1.983486|
|         189|  5.9850e+00|   -5.309542|   -5.673666|   -5.945006|   -5.566517|   -5.486107|  -13.040813|    1.990820|
|         190|  5.9845e+00|   -5.308539|   -5.672087|   -5.945051|   -5.567035|   -5.484523|  -13.041818|    1.997953|
|         191|  5.9845e+00|   -5.308852|   -5.670408|   -5.945600|   -5.567745|   -5.484741|  -13.044017|    2.004737|
|         192|  5.9842e+00|   -5.310362|   -5.668829|   -5.946486|   -5.568465|   -5.486644|  -13.046953|    2.011033|
|         193|  5.9850e+00|   -5.312762|   -5.667523|   -5.947491|   -5.569013|   -5.489848|  -13.049921|    2.016718|
|         194|  5.9844e+00|   -5.315571|   -5.666621|   -5.948379|   -5.569236|   -5.493733|  -13.052312|    2.021684|
|         195|  5.9835e+00|   -5.318246|   -5.666189|   -5.948948|   -5.569040|   -5.497570|  -13.053615|    2.025843|
|         196|  5.9830e+00|   -5.320280|   -5.666209|   -5.949065|   -5.568415|   -5.500640|  -13.053561|    2.029128|
|         197|  5.9828e+00|   -5.321280|   -5.666592|   -5.948680|   -5.567427|   -5.502355|  -13.052174|    2.031490|
|         198|  5.9826e+00|   -5.321057|   -5.667189|   -5.947843|   -5.566212|   -5.502395|  -13.049640|    2.032904|
|         199|  5.9819e+00|   -5.319654|   -5.667816|   -5.946683|   -5.564941|   -5.500756|  -13.046351|    2.033366|
|         200|  5.9813e+00|   -5.317326|   -5.668278|   -5.945385|   -5.563788|   -5.497742|  -13.042782|    2.032893|
|         201|  5.9806e+00|   -5.314482|   -5.668393|   -5.944157|   -5.562905|   -5.493902|  -13.039360|    2.031522|
|         202|  5.9796e+00|   -5.311613|   -5.668064|   -5.943191|   -5.562388|   -5.489919|  -13.036506|    2.029310|
|         203|  5.9786e+00|   -5.309202|   -5.667293|   -5.942629|   -5.562263|   -5.486473|  -13.034760|    2.026329|
|         204|  5.9781e+00|   -5.307646|   -5.666171|   -5.942537|   -5.562490|   -5.484140|  -13.034612|    2.022670|
|         205|  5.9781e+00|   -5.307202|   -5.664868|   -5.942891|   -5.562963|   -5.483315|  -13.035825|    2.018433|
|         206|  5.9775e+00|   -5.307897|   -5.663550|   -5.943576|   -5.563527|   -5.484075|  -13.037971|    2.013732|
|         207|  5.9778e+00|   -5.309551|   -5.662360|   -5.944418|   -5.564012|   -5.486211|  -13.040601|    2.008689|
|         208|  5.9774e+00|   -5.311811|   -5.661420|   -5.945213|   -5.564257|   -5.489279|  -13.043140|    2.003427|
|         209|  5.9773e+00|   -5.314206|   -5.660817|   -5.945764|   -5.564140|   -5.492661|  -13.045034|    1.998074|
|         210|  5.9768e+00|   -5.316248|   -5.660586|   -5.945926|   -5.563602|   -5.495699|  -13.045846|    1.992755|
|         211|  5.9762e+00|   -5.317514|   -5.660691|   -5.945613|   -5.562665|   -5.497789|  -13.045429|    1.987591|
|         212|  5.9755e+00|   -5.317726|   -5.661042|   -5.944831|   -5.561423|   -5.498501|  -13.043799|    1.982697|
|         213|  5.9746e+00|   -5.316803|   -5.661501|   -5.943663|   -5.560027|   -5.497670|  -13.041146|    1.978179|
|         214|  5.9747e+00|   -5.314868|   -5.661908|   -5.942248|   -5.558646|   -5.495406|  -13.037860|    1.974131|
|         215|  5.9743e+00|   -5.312216|   -5.662090|   -5.940763|   -5.557446|   -5.492068|  -13.034340|    1.970636|
|         216|  5.9739e+00|   -5.309248|   -5.661900|   -5.939388|   -5.556551|   -5.488180|  -13.030965|    1.967761|
|         217|  5.9735e+00|   -5.306405|   -5.661260|   -5.938279|   -5.556027|   -5.484346|  -13.028132|    1.965557|
|         218|  5.9728e+00|   -5.304100|   -5.660179|   -5.937544|   -5.555878|   -5.481133|  -13.026246|    1.964059|
|         219|  5.9723e+00|   -5.302647|   -5.658745|   -5.937224|   -5.556044|   -5.479000|  -13.025751|    1.963284|
|         220|  5.9720e+00|   -5.302234|   -5.657115|   -5.937279|   -5.556404|   -5.478243|  -13.026482|    1.963234|
|         221|  5.9719e+00|   -5.302849|   -5.655456|   -5.937600|   -5.556805|   -5.478892|  -13.028011|    1.963892|
|         222|  5.9715e+00|   -5.304293|   -5.653918|   -5.938035|   -5.557086|   -5.480716|  -13.029916|    1.965225|
|         223|  5.9712e+00|   -5.306230|   -5.652633|   -5.938414|   -5.557104|   -5.483301|  -13.031703|    1.967184|
|         224|  5.9710e+00|   -5.308229|   -5.651701|   -5.938579|   -5.556761|   -5.486093|  -13.032921|    1.969707|
|         225|  5.9715e+00|   -5.309852|   -5.651170|   -5.938413|   -5.556024|   -5.488509|  -13.033238|    1.972720|
|         226|  5.9716e+00|   -5.310733|   -5.651019|   -5.937857|   -5.554935|   -5.490028|  -13.032512|    1.976136|
|         227|  5.9717e+00|   -5.310635|   -5.651167|   -5.936922|   -5.553601|   -5.490291|  -13.030728|    1.979862|
|         228|  5.9714e+00|   -5.309500|   -5.651486|   -5.935686|   -5.552170|   -5.489162|  -13.028056|    1.983796|
|         229|  5.9711e+00|   -5.307449|   -5.651818|   -5.934274|   -5.550804|   -5.486754|  -13.024777|    1.987836|
|         230|  5.9705e+00|   -5.304757|   -5.651986|   -5.932839|   -5.549653|   -5.483390|  -13.021193|    1.991876|
|         231|  5.9703e+00|   -5.301789|   -5.651824|   -5.931543|   -5.548822|   -5.479540|  -13.017660|    1.995815|
|         232|  5.9702e+00|   -5.298955|   -5.651226|   -5.930527|   -5.548368|   -5.475750|  -13.014531|    1.999554|
|         233|  5.9700e+00|   -5.296639|   -5.650172|   -5.929889|   -5.548284|   -5.472551|  -13.012210|    2.003002|
|         234|  5.9697e+00|   -5.295141|   -5.648722|   -5.929669|   -5.548495|   -5.470375|  -13.011201|    2.006074|
|         235|  5.9692e+00|   -5.294650|   -5.647013|   -5.929836|   -5.548882|   -5.469521|  -13.011437|    2.008701|
|         236|  5.9686e+00|   -5.295173|   -5.645211|   -5.930299|   -5.549293|   -5.470049|  -13.012531|    2.010822|
|         237|  5.9683e+00|   -5.296541|   -5.643465|   -5.930918|   -5.549573|   -5.471773|  -13.014098|    2.012392|
|         238|  5.9679e+00|   -5.298449|   -5.641912|   -5.931534|   -5.549590|   -5.474321|  -13.015686|    2.013382|
|         239|  5.9675e+00|   -5.300497|   -5.640655|   -5.931997|   -5.549255|   -5.477179|  -13.016821|    2.013776|
|         240|  5.9671e+00|   -5.302255|   -5.639742|   -5.932183|   -5.548534|   -5.479778|  -13.017135|    2.013574|
|         241|  5.9667e+00|   -5.303351|   -5.639155|   -5.932026|   -5.547462|   -5.481594|  -13.016415|    2.012791|
|         242|  5.9665e+00|   -5.303527|   -5.638814|   -5.931521|   -5.546127|   -5.482237|  -13.014624|    2.011457|
|         243|  5.9662e+00|   -5.302684|   -5.638588|   -5.930725|   -5.544657|   -5.481521|  -13.011894|    2.009616|
|         244|  5.9658e+00|   -5.300904|   -5.638320|   -5.929749|   -5.543193|   -5.479505|  -13.008452|    2.007322|
|         245|  5.9655e+00|   -5.298420|   -5.637838|   -5.928733|   -5.541862|   -5.476457|  -13.004607|    2.004641|
|         246|  5.9650e+00|   -5.295569|   -5.636979|   -5.927829|   -5.540757|   -5.472814|  -13.000718|    2.001646|
|         247|  5.9652e+00|   -5.292748|   -5.635642|   -5.927171|   -5.539920|   -5.469114|  -12.997125|    1.998420|
|         248|  5.9650e+00|   -5.290336|   -5.633808|   -5.926860|   -5.539342|   -5.465886|  -12.994227|    1.995046|
|         249|  5.9646e+00|   -5.288639|   -5.631531|   -5.926932|   -5.538955|   -5.463570|  -12.992488|    1.991612|
|         250|  5.9641e+00|   -5.287849|   -5.628925|   -5.927363|   -5.538650|   -5.462472|  -12.991847|    1.988203|
|         251|  5.9638e+00|   -5.287984|   -5.626120|   -5.928065|   -5.538296|   -5.462664|  -12.991930|    1.984905|
|         252|  5.9635e+00|   -5.288883|   -5.623228|   -5.928904|   -5.537756|   -5.463967|  -12.992393|    1.981796|
|         253|  5.9638e+00|   -5.290254|   -5.620342|   -5.929728|   -5.536914|   -5.466022|  -12.992847|    1.978950|
|         254|  5.9637e+00|   -5.291712|   -5.617532|   -5.930388|   -5.535684|   -5.468333|  -12.992847|    1.976432|
|         255|  5.9639e+00|   -5.292846|   -5.614821|   -5.930769|   -5.534031|   -5.470354|  -12.992071|    1.974297|
|         256|  5.9636e+00|   -5.293301|   -5.612181|   -5.930804|   -5.531978|   -5.471589|  -12.990338|    1.972593|
|         257|  5.9635e+00|   -5.292832|   -5.609538|   -5.930484|   -5.529591|   -5.471663|  -12.987608|    1.971352|
|         258|  5.9630e+00|   -5.291342|   -5.606785|   -5.929860|   -5.526973|   -5.470401|  -12.983985|    1.970596|
|         259|  5.9626e+00|   -5.288904|   -5.603798|   -5.929034|   -5.524235|   -5.467855|  -12.979673|    1.970337|
|         260|  5.9624e+00|   -5.285729|   -5.600451|   -5.928136|   -5.521479|   -5.464271|  -12.974957|    1.970570|
|         261|  5.9623e+00|   -5.282128|   -5.596631|   -5.927305|   -5.518782|   -5.460054|  -12.970146|    1.971283|
|         262|  5.9620e+00|   -5.278465|   -5.592282|   -5.926669|   -5.516185|   -5.455700|  -12.965523|    1.972450|
|         263|  5.9614e+00|   -5.275083|   -5.587404|   -5.926319|   -5.513683|   -5.451684|  -12.961392|    1.974034|
|         264|  5.9607e+00|   -5.272247|   -5.582055|   -5.926286|   -5.511229|   -5.448395|  -12.958137|    1.975989|
|         265|  5.9599e+00|   -5.270122|   -5.576331|   -5.926548|   -5.508744|   -5.446095|  -12.955739|    1.978263|
|         266|  5.9594e+00|   -5.268712|   -5.570337|   -5.927027|   -5.506128|   -5.444831|  -12.953906|    1.980794|
|         267|  5.9597e+00|   -5.267863|   -5.564162|   -5.927602|   -5.503278|   -5.444432|  -12.952348|    1.983515|
|         268|  5.9596e+00|   -5.267308|   -5.557880|   -5.928139|   -5.500104|   -5.444565|  -12.950784|    1.986359|
|         269|  5.9595e+00|   -5.266715|   -5.551549|   -5.928514|   -5.496548|   -5.444805|  -12.948872|    1.989252|
|         270|  5.9594e+00|   -5.265740|   -5.545192|   -5.928621|   -5.492585|   -5.444691|  -12.946365|    1.992125|
|         271|  5.9592e+00|   -5.264099|   -5.538800|   -5.928405|   -5.488236|   -5.443824|  -12.943131|    1.994909|
|         272|  5.9591e+00|   -5.261606|   -5.532334|   -5.927858|   -5.483559|   -5.441920|  -12.939146|    1.997537|
|         273|  5.9590e+00|   -5.258206|   -5.525737|   -5.927030|   -5.478638|   -5.438863|  -12.934500|    1.999949|
|         274|  5.9593e+00|   -5.253978|   -5.518947|   -5.926011|   -5.473566|   -5.434719|  -12.929362|    2.002091|
|         275|  5.9593e+00|   -5.249114|   -5.511904|   -5.924917|   -5.468434|   -5.429709|  -12.923949|    2.003915|
|         276|  5.9595e+00|   -5.243877|   -5.504560|   -5.923874|   -5.463314|   -5.424173|  -12.918491|    2.005385|
|         277|  5.9593e+00|   -5.238565|   -5.496898|   -5.922998|   -5.458251|   -5.418507|  -12.913200|    2.006471|
|         278|  5.9597e+00|   -5.233452|   -5.488939|   -5.922371|   -5.453255|   -5.413093|  -12.908289|    2.007156|
|         279|  5.9597e+00|   -5.228748|   -5.480738|   -5.922026|   -5.448305|   -5.408236|  -12.904052|    2.007430|
|         280|  5.9594e+00|   -5.224584|   -5.472372|   -5.921956|   -5.443354|   -5.404146|  -12.900544|    2.007297|
|         281|  5.9594e+00|   -5.220968|   -5.463923|   -5.922094|   -5.438342|   -5.400870|  -12.897570|    2.006767|
|         282|  5.9595e+00|   -5.217785|   -5.455462|   -5.922339|   -5.433206|   -5.398280|  -12.894897|    2.005861|
|         283|  5.9594e+00|   -5.214836|   -5.447048|   -5.922576|   -5.427891|   -5.396126|  -12.892330|    2.004611|
|         284|  5.9597e+00|   -5.211880|   -5.438730|   -5.922693|   -5.422365|   -5.394093|  -12.889623|    2.003053|
|         285|  5.9604e+00|   -5.208670|   -5.430533|   -5.922594|   -5.416618|   -5.391840|  -12.886584|    2.001232|
|         286|  5.9606e+00|   -5.205004|   -5.422464|   -5.922225|   -5.410673|   -5.389077|  -12.883111|    1.999197|
|         287|  5.9604e+00|   -5.200762|   -5.414511|   -5.921575|   -5.404581|   -5.385605|  -12.879173|    1.997003|
|         288|  5.9603e+00|   -5.195909|   -5.406648|   -5.920680|   -5.398409|   -5.381341|  -12.874815|    1.994705|
|         289|  5.9602e+00|   -5.190513|   -5.398847|   -5.919614|   -5.392234|   -5.376335|  -12.870147|    1.992362|
|         290|  5.9603e+00|   -5.184714|   -5.391078|   -5.918479|   -5.386128|   -5.370749|  -12.865317|    1.990032|
|         291|  5.9605e+00|   -5.178705|   -5.383314|   -5.917389|   -5.380149|   -5.364823|  -12.860492|    1.987768|
|         292|  5.9607e+00|   -5.172704|   -5.375545|   -5.916450|   -5.374336|   -5.358850|  -12.855831|    1.985625|
|         293|  5.9608e+00|   -5.166914|   -5.367780|   -5.915746|   -5.368702|   -5.353117|  -12.851496|    1.983651|
|         294|  5.9611e+00|   -5.161498|   -5.360046|   -5.915315|   -5.363238|   -5.347864|  -12.847715|    1.981888|
|         295|  5.9608e+00|   -5.156561|   -5.352385|   -5.915159|   -5.357915|   -5.343263|  -12.844575|    1.980375|
|         296|  5.9606e+00|   -5.152125|   -5.344844|   -5.915222|   -5.352693|   -5.339371|  -12.841962|    1.979142|
|         297|  5.9605e+00|   -5.148123|   -5.337461|   -5.915415|   -5.347529|   -5.336116|  -12.839698|    1.978211|
|         298|  5.9602e+00|   -5.144422|   -5.330272|   -5.915632|   -5.342384|   -5.333327|  -12.837625|    1.977598|
|         299|  5.9597e+00|   -5.140857|   -5.323301|   -5.915770|   -5.337233|   -5.330778|  -12.835558|    1.977310|
|         300|  5.9597e+00|   -5.137256|   -5.316565|   -5.915734|   -5.332068|   -5.328222|  -12.833347|    1.977347|
+-----------------------------------------------------------------------+
|        File Writing Summary       |              Filename             |
+-----------------------------------------------------------------------+
|SU2 binary restart                 |restart_flow.dat                   |
|Paraview                           |flow.vtu                           |
|Paraview surface                   |surface_flow.vtu                   |
+-----------------------------------------------------------------------+
+--------------------------------------------------------------------------------------------------------------------+
|  Inner_Iter|   Time(sec)|    rms[Rho]|   rms[RhoU]|   rms[RhoV]|   rms[RhoW]|   rms[RhoE]|     rms[nu]|          CD|
+--------------------------------------------------------------------------------------------------------------------+
|         301|  6.0397e+00|   -5.133475|   -5.310066|   -5.915466|   -5.326901|   -5.325440|  -12.830890|    1.977700|
|         302|  6.0432e+00|   -5.129418|   -5.303795|   -5.914942|   -5.321764|   -5.322269|  -12.828136|    1.978354|
|         303|  6.0450e+00|   -5.125050|   -5.297735|   -5.914188|   -5.316696|   -5.318631|  -12.825097|    1.979285|
|         304|  6.0460e+00|   -5.120403|   -5.291864|   -5.913263|   -5.311747|   -5.314538|  -12.821838|    1.980465|
|         305|  6.0466e+00|   -5.115562|   -5.286157|   -5.912258|   -5.306962|   -5.310083|  -12.818460|    1.981860|
|         306|  6.0470e+00|   -5.110650|   -5.280591|   -5.911278|   -5.302378|   -5.305425|  -12.815083|    1.983431|
|         307|  6.0474e+00|   -5.105815|   -5.275149|   -5.910422|   -5.298015|   -5.300771|  -12.811838|    1.985136|
|         308|  6.0476e+00|   -5.101203|   -5.269827|   -5.909771|   -5.293881|   -5.296334|  -12.808849|    1.986930|
|         309|  6.0473e+00|   -5.096935|   -5.264631|   -5.909368|   -5.289963|   -5.292301|  -12.806289|    1.988767|
|         310|  6.0468e+00|   -5.093094|   -5.259575|   -5.909215|   -5.286239|   -5.288813|  -12.804261|    1.990602|
|         311|  6.0465e+00|   -5.089704|   -5.254681|   -5.909267|   -5.282672|   -5.285930|  -12.802701|    1.992389|
|         312|  6.0462e+00|   -5.086726|   -5.249966|   -5.909443|   -5.279227|   -5.283612|  -12.801474|    1.994085|
|         313|  6.0460e+00|   -5.084069|   -5.245445|   -5.909647|   -5.275868|   -5.281740|  -12.800444|    1.995652|
|         314|  6.0458e+00|   -5.081611|   -5.241130|   -5.909781|   -5.272571|   -5.280143|  -12.799470|    1.997053|
|         315|  6.0454e+00|   -5.079222|   -5.237027|   -5.909757|   -5.269322|   -5.278630|  -12.798426|    1.998257|
|         316|  6.0449e+00|   -5.076785|   -5.233132|   -5.909514|   -5.266122|   -5.277021|  -12.797212|    1.999239|
|         317|  6.0443e+00|   -5.074215|   -5.229439|   -5.909025|   -5.262983|   -5.275176|  -12.795768|    1.999979|
|         318|  6.0438e+00|   -5.071467|   -5.225930|   -5.908308|   -5.259928|   -5.273012|  -12.794089|    2.000465|
|         319|  6.0437e+00|   -5.068546|   -5.222586|   -5.907414|   -5.256984|   -5.270514|  -12.792216|    2.000691|
|         320|  6.0437e+00|   -5.065497|   -5.219387|   -5.906421|   -5.254180|   -5.267732|  -12.790217|    2.000655|
|         321|  6.0434e+00|   -5.062401|   -5.216311|   -5.905425|   -5.251537|   -5.264773|  -12.788188|    2.000366|
|         322|  6.0429e+00|   -5.059360|   -5.213339|   -5.904517|   -5.249070|   -5.261785|  -12.786232|    1.999835|
|         323|  6.0423e+00|   -5.056484|   -5.210461|   -5.903775|   -5.246782|   -5.258937|  -12.784449|    1.999081|
|         324|  6.0418e+00|   -5.053866|   -5.207673|   -5.903243|   -5.244661|   -5.256379|  -12.782964|    1.998128|
|         325|  6.0412e+00|   -5.051577|   -5.204982|   -5.902930|   -5.242690|   -5.254234|  -12.781902|    1.997003|
|         326|  6.0409e+00|   -5.049648|   -5.202397|   -5.902799|   -5.240841|   -5.252566|  -12.781244|    1.995738|
|         327|  6.0406e+00|   -5.048058|   -5.199928|   -5.902787|   -5.239083|   -5.251366|  -12.780886|    1.994368|
|         328|  6.0402e+00|   -5.046744|   -5.197584|   -5.902811|   -5.237390|   -5.250549|  -12.780697|    1.992929|
|         329|  6.0399e+00|   -5.045611|   -5.195373|   -5.902782|   -5.235737|   -5.249983|  -12.780569|    1.991458|
|         330|  6.0396e+00|   -5.044556|   -5.193300|   -5.902623|   -5.234110|   -5.249515|  -12.780386|    1.989993|
|         331|  6.0391e+00|   -5.043477|   -5.191365|   -5.902274|   -5.232504|   -5.248993|  -12.780053|    1.988569|
|         332|  6.0387e+00|   -5.042294|   -5.189560|   -5.901709|   -5.230923|   -5.248288|  -12.779504|    1.987223|
|         333|  6.0386e+00|   -5.040958|   -5.187875|   -5.900936|   -5.229381|   -5.247316|  -12.778721|    1.985985|
|         334|  6.0382e+00|   -5.039457|   -5.186296|   -5.899990|   -5.227898|   -5.246045|  -12.777729|    1.984885|
|         335|  6.0377e+00|   -5.037816|   -5.184804|   -5.898943|   -5.226495|   -5.244499|  -12.776580|    1.983947|
|         336|  6.0371e+00|   -5.036091|   -5.183384|   -5.897873|   -5.225191|   -5.242752|  -12.775348|    1.983192|
|         337|  6.0367e+00|   -5.034361|   -5.182017|   -5.896864|   -5.224000|   -5.240918|  -12.774123|    1.982635|
|         338|  6.0365e+00|   -5.032715|   -5.180693|   -5.895990|   -5.222928|   -5.239137|  -12.772996|    1.982288|
|         339|  6.0363e+00|   -5.031240|   -5.179407|   -5.895300|   -5.221970|   -5.237543|  -12.772070|    1.982155|
|         340|  6.0358e+00|   -5.030004|   -5.178162|   -5.894810|   -5.221115|   -5.236254|  -12.771481|    1.982237|
|         341|  6.0352e+00|   -5.029049|   -5.176965|   -5.894501|   -5.220347|   -5.235349|  -12.771263|    1.982528|
|         342|  6.0348e+00|   -5.028374|   -5.175826|   -5.894323|   -5.219641|   -5.234842|  -12.771341|    1.983018|
|         343|  6.0341e+00|   -5.027938|   -5.174754|   -5.894210|   -5.218974|   -5.234683|  -12.771591|    1.983693|
|         344|  6.0335e+00|   -5.027666|   -5.173758|   -5.894083|   -5.218325|   -5.234768|  -12.771915|    1.984533|
|         345|  6.0332e+00|   -5.027471|   -5.172843|   -5.893873|   -5.217678|   -5.234968|  -12.772213|    1.985515|
|         346|  6.0327e+00|   -5.027261|   -5.172012|   -5.893520|   -5.217024|   -5.235145|  -12.772384|    1.986615|
|         347|  6.0325e+00|   -5.026957|   -5.171263|   -5.892991|   -5.216364|   -5.235174|  -12.772353|    1.987803|
|         348|  6.0323e+00|   -5.026504|   -5.170588|   -5.892280|   -5.215704|   -5.234965|  -12.772088|    1.989051|
|         349|  6.0319e+00|   -5.025877|   -5.169975|   -5.891414|   -5.215060|   -5.234469|  -12.771597|    1.990325|
|         350|  6.0315e+00|   -5.025086|   -5.169411|   -5.890442|   -5.214451|   -5.233690|  -12.770911|    1.991597|
|         351|  6.0313e+00|   -5.024170|   -5.168881|   -5.889430|   -5.213894|   -5.232674|  -12.770092|    1.992835|
|         352|  6.0310e+00|   -5.023193|   -5.168369|   -5.888456|   -5.213405|   -5.231514|  -12.769221|    1.994009|
|         353|  6.0305e+00|   -5.022236|   -5.167863|   -5.887588|   -5.212994|   -5.230330|  -12.768389|    1.995093|
|         354|  6.0302e+00|   -5.021383|   -5.167357|   -5.886879|   -5.212664|   -5.229255|  -12.767690|    1.996061|
|         355|  6.0297e+00|   -5.020705|   -5.166854|   -5.886354|   -5.212411|   -5.228408|  -12.767257|    1.996893|
|         356|  6.0295e+00|   -5.020254|   -5.166360|   -5.886010|   -5.212222|   -5.227879|  -12.767165|    1.997570|
|         357|  6.0293e+00|   -5.020046|   -5.165884|   -5.885809|   -5.212078|   -5.227709|  -12.767375|    1.998077|
|         358|  6.0293e+00|   -5.020057|   -5.165436|   -5.885695|   -5.211958|   -5.227871|  -12.767779|    1.998407|
|         359|  6.0290e+00|   -5.020227|   -5.165026|   -5.885600|   -5.211842|   -5.228286|  -12.768273|    1.998552|
|         360|  6.0282e+00|   -5.020479|   -5.164661|   -5.885458|   -5.211712|   -5.228837|  -12.768767|    1.998513|
|         361|  6.0275e+00|   -5.020725|   -5.164346|   -5.885210|   -5.211556|   -5.229397|  -12.769160|    1.998294|
|         362|  6.0268e+00|   -5.020886|   -5.164082|   -5.884815|   -5.211371|   -5.229840|  -12.769367|    1.997901|
|         363|  6.0265e+00|   -5.020900|   -5.163864|   -5.884257|   -5.211161|   -5.230065|  -12.769346|    1.997347|
|         364|  6.0262e+00|   -5.020733|   -5.163685|   -5.883548|   -5.210938|   -5.230011|  -12.769090|    1.996648|
|         365|  6.0260e+00|   -5.020383|   -5.163531|   -5.882726|   -5.210718|   -5.229663|  -12.768618|    1.995822|
|         366|  6.0257e+00|   -5.019878|   -5.163392|   -5.881846|   -5.210522|   -5.229051|  -12.767980|    1.994890|
|         367|  6.0255e+00|   -5.019271|   -5.163253|   -5.880975|   -5.210367|   -5.228248|  -12.767254|    1.993877|
|         368|  6.0255e+00|   -5.018638|   -5.163102|   -5.880180|   -5.210267|   -5.227365|  -12.766531|    1.992807|
|         369|  6.0251e+00|   -5.018061|   -5.162933|   -5.879513|   -5.210230|   -5.226530|  -12.765901|    1.991706|
|         370|  6.0249e+00|   -5.017616|   -5.162747|   -5.879009|   -5.210257|   -5.225866|  -12.765473|    1.990600|
|         371|  6.0248e+00|   -5.017361|   -5.162549|   -5.878672|   -5.210338|   -5.225471|  -12.765362|    1.989516|
|         372|  6.0247e+00|   -5.017326|   -5.162349|   -5.878477|   -5.210458|   -5.225404|  -12.765559|    1.988477|
|         373|  6.0244e+00|   -5.017499|   -5.162158|   -5.878377|   -5.210597|   -5.225663|  -12.765982|    1.987507|
|         374|  6.0242e+00|   -5.017836|   -5.161984|   -5.878314|   -5.210735|   -5.226185|  -12.766517|    1.986627|
|         375|  6.0239e+00|   -5.018264|   -5.161839|   -5.878223|   -5.210851|   -5.226868|  -12.767077|    1.985855|
|         376|  6.0237e+00|   -5.018703|   -5.161727|   -5.878048|   -5.210933|   -5.227590|  -12.767566|    1.985208|
|         377|  6.0235e+00|   -5.019071|   -5.161651|   -5.877745|   -5.210974|   -5.228226|  -12.767894|    1.984697|
|         378|  6.0230e+00|   -5.019303|   -5.161611|   -5.877292|   -5.210976|   -5.228670|  -12.768010|    1.984332|
|         379|  6.0227e+00|   -5.019358|   -5.161599|   -5.876692|   -5.210947|   -5.228851|  -12.767896|    1.984118|
|         380|  6.0225e+00|   -5.019223|   -5.161607|   -5.875972|   -5.210904|   -5.228738|  -12.767559|    1.984057|
|         381|  6.0219e+00|   -5.018918|   -5.161623|   -5.875177|   -5.210869|   -5.228348|  -12.767039|    1.984147|
|         382|  6.0214e+00|   -5.018488|   -5.161636|   -5.874367|   -5.210860|   -5.227738|  -12.766406|    1.984382|
|         383|  6.0212e+00|   -5.017999|   -5.161634|   -5.873603|   -5.210895|   -5.227005|  -12.765747|    1.984755|
|         384|  6.0211e+00|   -5.017531|   -5.161608|   -5.872943|   -5.210985|   -5.226270|  -12.765146|    1.985253|
|         385|  6.0205e+00|   -5.017161|   -5.161558|   -5.872422|   -5.211135|   -5.225655|  -12.764691|    1.985861|
|         386|  6.0200e+00|   -5.016951|   -5.161488|   -5.872054|   -5.211337|   -5.225265|  -12.764509|    1.986563|
|         387|  6.0195e+00|   -5.016943|   -5.161405|   -5.871826|   -5.211578|   -5.225172|  -12.764637|    1.987341|
|         388|  6.0193e+00|   -5.017139|   -5.161321|   -5.871702|   -5.211839|   -5.225397|  -12.765018|    1.988173|
|         389|  6.0188e+00|   -5.017506|   -5.161245|   -5.871629|   -5.212100|   -5.225898|  -12.765546|    1.989040|
|         390|  6.0184e+00|   -5.017983|   -5.161187|   -5.871552|   -5.212341|   -5.226587|  -12.766121|    1.989920|
|         391|  6.0180e+00|   -5.018493|   -5.161155|   -5.871415|   -5.212545|   -5.227351|  -12.766657|    1.990790|
|         392|  6.0176e+00|   -5.018957|   -5.161154|   -5.871173|   -5.212703|   -5.228070|  -12.767067|    1.991632|
|         393|  6.0170e+00|   -5.019306|   -5.161183|   -5.870800|   -5.212813|   -5.228634|  -12.767289|    1.992424|
|         394|  6.0165e+00|   -5.019491|   -5.161240|   -5.870290|   -5.212882|   -5.228963|  -12.767293|    1.993149|
|         395|  6.0161e+00|   -5.019491|   -5.161316|   -5.869660|   -5.212927|   -5.229013|  -12.767077|    1.993791|
|         396|  6.0157e+00|   -5.019314|   -5.161402|   -5.868945|   -5.212967|   -5.228783|  -12.766670|    1.994335|
|         397|  6.0152e+00|   -5.018995|   -5.161486|   -5.868196|   -5.213025|   -5.228314|  -12.766128|    1.994771|
|         398|  6.0146e+00|   -5.018591|   -5.161558|   -5.867470|   -5.213120|   -5.227685|  -12.765531|    1.995091|
|         399|  6.0142e+00|   -5.018175|   -5.161607|   -5.866822|   -5.213265|   -5.227008|  -12.764957|    1.995288|
|         400|  6.0134e+00|   -5.017825|   -5.161629|   -5.866296|   -5.213469|   -5.226398|  -12.764484|    1.995361|
|         401|  6.0131e+00|   -5.017606|   -5.161627|   -5.865912|   -5.213727|   -5.225968|  -12.764225|    1.995310|
|         402|  6.0126e+00|   -5.017569|   -5.161607|   -5.865670|   -5.214029|   -5.225801|  -12.764268|    1.995139|
|         403|  6.0121e+00|   -5.017732|   -5.161578|   -5.865544|   -5.214358|   -5.225941|  -12.764592|    1.994854|
|         404|  6.0117e+00|   -5.018077|   -5.161552|   -5.865492|   -5.214694|   -5.226371|  -12.765109|    1.994465|
|         405|  6.0114e+00|   -5.018555|   -5.161538|   -5.865462|   -5.215014|   -5.227024|  -12.765705|    1.993983|
|         406|  6.0111e+00|   -5.019095|   -5.161545|   -5.865402|   -5.215301|   -5.227796|  -12.766297|    1.993420|
|         407|  6.0108e+00|   -5.019622|   -5.161578|   -5.865265|   -5.215541|   -5.228574|  -12.766803|    1.992794|
|         408|  6.0107e+00|   -5.020061|   -5.161641|   -5.865020|   -5.215729|   -5.229244|  -12.767149|    1.992119|
|         409|  6.0103e+00|   -5.020358|   -5.161732|   -5.864652|   -5.215870|   -5.229715|  -12.767297|    1.991413|
|         410|  6.0100e+00|   -5.020480|   -5.161844|   -5.864165|   -5.215978|   -5.229929|  -12.767230|    1.990695|
|         411|  6.0099e+00|   -5.020424|   -5.161970|   -5.863584|   -5.216071|   -5.229868|  -12.766965|    1.989981|
|         412|  6.0095e+00|   -5.020211|   -5.162098|   -5.862950|   -5.216171|   -5.229553|  -12.766539|    1.989289|
|         413|  6.0091e+00|   -5.019888|   -5.162219|   -5.862313|   -5.216301|   -5.229044|  -12.766025|    1.988635|
|         414|  6.0088e+00|   -5.019521|   -5.162320|   -5.861727|   -5.216477|   -5.228436|  -12.765498|    1.988035|
|         415|  6.0085e+00|   -5.019184|   -5.162397|   -5.861238|   -5.216709|   -5.227843|  -12.765031|    1.987502|
|         416|  6.0081e+00|   -5.018948|   -5.162448|   -5.860876|   -5.217000|   -5.227377|  -12.764715|    1.987047|
|         417|  6.0077e+00|   -5.018869|   -5.162478|   -5.860651|   -5.217341|   -5.227134|  -12.764667|    1.986682|
|         418|  6.0073e+00|   -5.018983|   -5.162495|   -5.860550|   -5.217719|   -5.227181|  -12.764918|    1.986413|
|         419|  6.0071e+00|   -5.019290|   -5.162511|   -5.860540|   -5.218113|   -5.227527|  -12.765405|    1.986245|
|         420|  6.0070e+00|   -5.019753|   -5.162535|   -5.860576|   -5.218502|   -5.228129|  -12.766022|    1.986180|
|         421|  6.0069e+00|   -5.020311|   -5.162576|   -5.860608|   -5.218864|   -5.228899|  -12.766666|    1.986219|
|         422|  6.0068e+00|   -5.020891|   -5.162641|   -5.860592|   -5.219185|   -5.229727|  -12.767266|    1.986360|
|         423|  6.0064e+00|   -5.021418|   -5.162735|   -5.860491|   -5.219453|   -5.230501|  -12.767741|    1.986597|
|         424|  6.0061e+00|   -5.021830|   -5.162857|   -5.860281|   -5.219670|   -5.231120|  -12.768039|    1.986923|
|         425|  6.0058e+00|   -5.022083|   -5.163005|   -5.859957|   -5.219844|   -5.231511|  -12.768132|    1.987329|
|         426|  6.0057e+00|   -5.022160|   -5.163169|   -5.859532|   -5.219992|   -5.231637|  -12.768021|    1.987805|
|         427|  6.0055e+00|   -5.022069|   -5.163341|   -5.859033|   -5.220135|   -5.231498|  -12.767729|    1.988337|
|         428|  6.0053e+00|   -5.021845|   -5.163511|   -5.858504|   -5.220294|   -5.231135|  -12.767311|    1.988913|
|         429|  6.0051e+00|   -5.021541|   -5.163666|   -5.857993|   -5.220491|   -5.230622|  -12.766838|    1.989518|
|         430|  6.0049e+00|   -5.021228|   -5.163798|   -5.857547|   -5.220738|   -5.230063|  -12.766383|    1.990137|
|         431|  6.0046e+00|   -5.020977|   -5.163903|   -5.857201|   -5.221042|   -5.229571|  -12.766021|    1.990755|
|         432|  6.0043e+00|   -5.020853|   -5.163984|   -5.856979|   -5.221399|   -5.229251|  -12.765859|    1.991357|
|         433|  6.0040e+00|   -5.020902|   -5.164048|   -5.856876|   -5.221800|   -5.229183|  -12.765988|    1.991929|
|         434|  6.0039e+00|   -5.021143|   -5.164103|   -5.856873|   -5.222227|   -5.229409|  -12.766388|    1.992458|
|         435|  6.0037e+00|   -5.021559|   -5.164159|   -5.856934|   -5.222661|   -5.229913|  -12.766975|    1.992932|
|         436|  6.0035e+00|   -5.022101|   -5.164227|   -5.857016|   -5.223078|   -5.230631|  -12.767636|    1.993339|
|         437|  6.0031e+00|   -5.022704|   -5.164314|   -5.857074|   -5.223461|   -5.231463|  -12.768287|    1.993672|
|         438|  6.0028e+00|   -5.023292|   -5.164427|   -5.857071|   -5.223796|   -5.232297|  -12.768856|    1.993922|
|         439|  6.0026e+00|   -5.023797|   -5.164568|   -5.856978|   -5.224077|   -5.233029|  -12.769276|    1.994085|
|         440|  6.0025e+00|   -5.024166|   -5.164734|   -5.856780|   -5.224308|   -5.233572|  -12.769512|    1.994158|
|         441|  6.0022e+00|   -5.024367|   -5.164920|   -5.856480|   -5.224502|   -5.233870|  -12.769541|    1.994141|
|         442|  6.0019e+00|   -5.024395|   -5.165117|   -5.856094|   -5.224676|   -5.233903|  -12.769377|    1.994034|
|         443|  6.0016e+00|   -5.024269|   -5.165316|   -5.855655|   -5.224851|   -5.233687|  -12.769054|    1.993842|
|         444|  6.0012e+00|   -5.024030|   -5.165505|   -5.855205|   -5.225049|   -5.233277|  -12.768634|    1.993569|
|         445|  6.0008e+00|   -5.023739|   -5.165675|   -5.854789|   -5.225287|   -5.232759|  -12.768187|    1.993223|
|         446|  6.0005e+00|   -5.023466|   -5.165817|   -5.854447|   -5.225576|   -5.232239|  -12.767782|    1.992813|
|         447|  6.0002e+00|   -5.023279|   -5.165932|   -5.854207|   -5.225917|   -5.231826|  -12.767503|    1.992349|
|         448|  5.9999e+00|   -5.023234|   -5.166023|   -5.854081|   -5.226305|   -5.231613|  -12.767466|    1.991842|
|         449|  5.9997e+00|   -5.023368|   -5.166099|   -5.854060|   -5.226728|   -5.231669|  -12.767720|    1.991305|
|         450|  5.9995e+00|   -5.023686|   -5.166169|   -5.854119|   -5.227168|   -5.232012|  -12.768215|    1.990750|
+-----------------------------------------------------------------------+
|        File Writing Summary       |              Filename             |
+-----------------------------------------------------------------------+
|SU2 binary restart                 |restart_flow.dat                   |
|Paraview                           |flow.vtu                           |
|Paraview surface                   |surface_flow.vtu                   |
+-----------------------------------------------------------------------+
+--------------------------------------------------------------------------------------------------------------------+
|  Inner_Iter|   Time(sec)|    rms[Rho]|   rms[RhoU]|   rms[RhoV]|   rms[RhoW]|   rms[RhoE]|     rms[nu]|          CD|
+--------------------------------------------------------------------------------------------------------------------+
|         451|  6.0530e+00|   -5.024160|   -5.166245|   -5.854220|   -5.227606|   -5.232607|  -12.768855|    1.990190|
|         452|  6.0551e+00|   -5.024735|   -5.166334|   -5.854323|   -5.228022|   -5.233375|  -12.769528|    1.989638|
|         453|  6.0552e+00|   -5.025339|   -5.166446|   -5.854388|   -5.228399|   -5.234212|  -12.770161|    1.989105|
|         454|  6.0556e+00|   -5.025904|   -5.166584|   -5.854384|   -5.228728|   -5.235011|  -12.770689|    1.988605|
|         455|  6.0550e+00|   -5.026367|   -5.166749|   -5.854291|   -5.229009|   -5.235677|  -12.771060|    1.988147|
|         456|  6.0546e+00|   -5.026687|   -5.166939|   -5.854101|   -5.229247|   -5.236137|  -12.771241|    1.987741|
|         457|  6.0546e+00|   -5.026842|   -5.167146|   -5.853821|   -5.229459|   -5.236350|  -12.771228|    1.987396|
|         458|  6.0544e+00|   -5.026835|   -5.167362|   -5.853473|   -5.229663|   -5.236311|  -12.771036|    1.987117|
|         459|  6.0542e+00|   -5.026693|   -5.167576|   -5.853091|   -5.229880|   -5.236048|  -12.770711|    1.986911|
|         460|  6.0537e+00|   -5.026462|   -5.167777|   -5.852716|   -5.230128|   -5.235623|  -12.770311|    1.986780|
|         461|  6.0536e+00|   -5.026203|   -5.167955|   -5.852389|   -5.230419|   -5.235128|  -12.769905|    1.986726|
|         462|  6.0532e+00|   -5.025983|   -5.168107|   -5.852142|   -5.230760|   -5.234666|  -12.769557|    1.986748|
|         463|  6.0530e+00|   -5.025864|   -5.168231|   -5.851997|   -5.231148|   -5.234338|  -12.769356|    1.986845|
|         464|  6.0527e+00|   -5.025895|   -5.168334|   -5.851958|   -5.231572|   -5.234229|  -12.769410|    1.987012|
|         465|  6.0524e+00|   -5.026101|   -5.168425|   -5.852012|   -5.232017|   -5.234389|  -12.769738|    1.987245|
|         466|  6.0519e+00|   -5.026478|   -5.168513|   -5.852131|   -5.232463|   -5.234822|  -12.770275|    1.987536|
|         467|  6.0515e+00|   -5.026988|   -5.168609|   -5.852279|   -5.232890|   -5.235478|  -12.770920|    1.987877|
|         468|  6.0511e+00|   -5.027570|   -5.168722|   -5.852419|   -5.233277|   -5.236270|  -12.771571|    1.988260|
|         469|  6.0509e+00|   -5.028156|   -5.168859|   -5.852519|   -5.233610|   -5.237094|  -12.772165|    1.988674|
|         470|  6.0507e+00|   -5.028680|   -5.169025|   -5.852555|   -5.233884|   -5.237848|  -12.772645|    1.989109|
|         471|  6.0502e+00|   -5.029087|   -5.169220|   -5.852510|   -5.234103|   -5.238446|  -12.772976|    1.989554|
|         472|  6.0496e+00|   -5.029346|   -5.169440|   -5.852384|   -5.234278|   -5.238831|  -12.773131|    1.989999|
|         473|  6.0493e+00|   -5.029442|   -5.169678|   -5.852185|   -5.234431|   -5.238972|  -12.773113|    1.990432|
|         474|  6.0488e+00|   -5.029387|   -5.169924|   -5.851935|   -5.234586|   -5.238872|  -12.772942|    1.990844|
|         475|  6.0485e+00|   -5.029216|   -5.170170|   -5.851667|   -5.234768|   -5.238570|  -12.772662|    1.991224|
|         476|  6.0483e+00|   -5.028978|   -5.170403|   -5.851417|   -5.235001|   -5.238135|  -12.772333|    1.991565|
|         477|  6.0478e+00|   -5.028739|   -5.170614|   -5.851223|   -5.235300|   -5.237662|  -12.772015|    1.991858|
|         478|  6.0473e+00|   -5.028566|   -5.170799|   -5.851112|   -5.235673|   -5.237254|  -12.771778|    1.992098|
|         479|  6.0470e+00|   -5.028521|   -5.170959|   -5.851102|   -5.236119|   -5.237012|  -12.771716|    1.992279|
|         480|  6.0467e+00|   -5.028648|   -5.171101|   -5.851193|   -5.236628|   -5.237015|  -12.771931|    1.992397|
|         481|  6.0463e+00|   -5.028970|   -5.171233|   -5.851371|   -5.237182|   -5.237308|  -12.772422|    1.992452|
|         482|  6.0460e+00|   -5.029472|   -5.171366|   -5.851603|   -5.237757|   -5.237882|  -12.773112|    1.992441|
|         483|  6.0456e+00|   -5.030112|   -5.171508|   -5.851855|   -5.238327|   -5.238679|  -12.773892|    1.992367|
|         484|  6.0451e+00|   -5.030822|   -5.171669|   -5.852086|   -5.238867|   -5.239606|  -12.774651|    1.992231|
|         485|  6.0445e+00|   -5.031526|   -5.171856|   -5.852264|   -5.239353|   -5.240548|  -12.775322|    1.992038|
|         486|  6.0442e+00|   -5.032154|   -5.172071|   -5.852361|   -5.239772|   -5.241403|  -12.775843|    1.991793|
|         487|  6.0440e+00|   -5.032650|   -5.172313|   -5.852362|   -5.240119|   -5.242081|  -12.776175|    1.991502|
|         488|  6.0436e+00|   -5.032977|   -5.172577|   -5.852264|   -5.240400|   -5.242522|  -12.776290|    1.991172|
|         489|  6.0432e+00|   -5.033120|   -5.172856|   -5.852077|   -5.240628|   -5.242695|  -12.776196|    1.990812|
|         490|  6.0429e+00|   -5.033091|   -5.173139|   -5.851826|   -5.240822|   -5.242606|  -12.775919|    1.990431|
|         491|  6.0427e+00|   -5.032923|   -5.173418|   -5.851547|   -5.241006|   -5.242295|  -12.775516|    1.990036|
|         492|  6.0425e+00|   -5.032669|   -5.173681|   -5.851284|   -5.241200|   -5.241833|  -12.775055|    1.989637|
|         493|  6.0422e+00|   -5.032396|   -5.173922|   -5.851076|   -5.241422|   -5.241319|  -12.774611|    1.989244|
|         494|  6.0420e+00|   -5.032172|   -5.174136|   -5.850957|   -5.241683|   -5.240862|  -12.774263|    1.988866|
|         495|  6.0417e+00|   -5.032062|   -5.174328|   -5.850947|   -5.241987|   -5.240562|  -12.774114|    1.988509|
|         496|  6.0413e+00|   -5.032113|   -5.174505|   -5.851053|   -5.242332|   -5.240502|  -12.774259|    1.988183|
|         497|  6.0411e+00|   -5.032350|   -5.174676|   -5.851258|   -5.242711|   -5.240725|  -12.774696|    1.987894|
|         498|  6.0408e+00|   -5.032765|   -5.174852|   -5.851535|   -5.243110|   -5.241227|  -12.775349|    1.987648|
|         499|  6.0404e+00|   -5.033318|   -5.175041|   -5.851850|   -5.243517|   -5.241951|  -12.776117|    1.987449|
|         500|  6.0402e+00|   -5.033952|   -5.175251|   -5.852168|   -5.243919|   -5.242810|  -12.776889|    1.987301|
|         501|  6.0399e+00|   -5.034598|   -5.175487|   -5.852458|   -5.244303|   -5.243698|  -12.777604|    1.987207|
|         502|  6.0397e+00|   -5.035194|   -5.175752|   -5.852697|   -5.244665|   -5.244520|  -12.778211|    1.987167|
|         503|  6.0393e+00|   -5.035692|   -5.176043|   -5.852868|   -5.245005|   -5.245199|  -12.778678|    1.987182|
|         504|  6.0390e+00|   -5.036061|   -5.176356|   -5.852965|   -5.245333|   -5.245682|  -12.778980|    1.987249|
|         505|  6.0388e+00|   -5.036288|   -5.176682|   -5.852994|   -5.245661|   -5.245941|  -12.779113|    1.987366|
|         506|  6.0385e+00|   -5.036381|   -5.177012|   -5.852968|   -5.246004|   -5.245980|  -12.779091|    1.987529|
|         507|  6.0382e+00|   -5.036367|   -5.177335|   -5.852908|   -5.246380|   -5.245832|  -12.778946|    1.987733|
|         508|  6.0379e+00|   -5.036291|   -5.177642|   -5.852840|   -5.246801|   -5.245558|  -12.778728|    1.987973|
|         509|  6.0376e+00|   -5.036207|   -5.177924|   -5.852791|   -5.247276|   -5.245241|  -12.778484|    1.988241|
|         510|  6.0373e+00|   -5.036174|   -5.178176|   -5.852785|   -5.247803|   -5.244975|  -12.778273|    1.988531|
|         511|  6.0370e+00|   -5.036244|   -5.178400|   -5.852833|   -5.248376|   -5.244849|  -12.778191|    1.988836|
|         512|  6.0367e+00|   -5.036459|   -5.178602|   -5.852939|   -5.248979|   -5.244937|  -12.778338|    1.989147|
|         513|  6.0364e+00|   -5.036838|   -5.178794|   -5.853092|   -5.249593|   -5.245280|  -12.778730|    1.989456|
|         514|  6.0363e+00|   -5.037368|   -5.178986|   -5.853275|   -5.250193|   -5.245874|  -12.779311|    1.989757|
|         515|  6.0360e+00|   -5.038011|   -5.179187|   -5.853462|   -5.250754|   -5.246664|  -12.779991|    1.990041|
|         516|  6.0356e+00|   -5.038705|   -5.179409|   -5.853628|   -5.251253|   -5.247565|  -12.780657|    1.990302|
|         517|  6.0355e+00|   -5.039379|   -5.179658|   -5.853754|   -5.251672|   -5.248471|  -12.781237|    1.990534|
|         518|  6.0354e+00|   -5.039969|   -5.179939|   -5.853827|   -5.252002|   -5.249283|  -12.781696|    1.990730|
|         519|  6.0350e+00|   -5.040425|   -5.180252|   -5.853838|   -5.252244|   -5.249923|  -12.781997|    1.990887|
|         520|  6.0350e+00|   -5.040717|   -5.180591|   -5.853787|   -5.252410|   -5.250336|  -12.782117|    1.991001|
|         521|  6.0347e+00|   -5.040836|   -5.180948|   -5.853683|   -5.252522|   -5.250498|  -12.782052|    1.991070|
|         522|  6.0343e+00|   -5.040794|   -5.181312|   -5.853550|   -5.252608|   -5.250412|  -12.781826|    1.991091|
|         523|  6.0340e+00|   -5.040625|   -5.181673|   -5.853414|   -5.252699|   -5.250116|  -12.781480|    1.991064|
|         524|  6.0337e+00|   -5.040380|   -5.182018|   -5.853311|   -5.252824|   -5.249674|  -12.781086|    1.990991|
|         525|  6.0337e+00|   -5.040124|   -5.182337|   -5.853274|   -5.253008|   -5.249179|  -12.780715|    1.990874|
|         526|  6.0335e+00|   -5.039924|   -5.182624|   -5.853334|   -5.253268|   -5.248735|  -12.780434|    1.990714|
|         527|  6.0333e+00|   -5.039843|   -5.182880|   -5.853507|   -5.253609|   -5.248442|  -12.780333|    1.990516|
|         528|  6.0330e+00|   -5.039934|   -5.183111|   -5.853795|   -5.254031|   -5.248387|  -12.780517|    1.990284|
|         529|  6.0326e+00|   -5.040225|   -5.183326|   -5.854183|   -5.254521|   -5.248626|  -12.781000|    1.990024|
|         530|  6.0325e+00|   -5.040714|   -5.183537|   -5.854638|   -5.255064|   -5.249166|  -12.781730|    1.989742|
|         531|  6.0324e+00|   -5.041370|   -5.183754|   -5.855120|   -5.255636|   -5.249965|  -12.782605|    1.989444|
|         532|  6.0322e+00|   -5.042135|   -5.183985|   -5.855586|   -5.256215|   -5.250940|  -12.783507|    1.989136|
|         533|  6.0319e+00|   -5.042935|   -5.184239|   -5.856002|   -5.256778|   -5.251984|  -12.784319|    1.988826|
|         534|  6.0318e+00|   -5.043698|   -5.184519|   -5.856338|   -5.257307|   -5.252985|  -12.785002|    1.988520|
|         535|  6.0315e+00|   -5.044362|   -5.184828|   -5.856579|   -5.257791|   -5.253854|  -12.785526|    1.988224|
|         536|  6.0313e+00|   -5.044886|   -5.185162|   -5.856719|   -5.258226|   -5.254523|  -12.785872|    1.987945|
|         537|  6.0312e+00|   -5.045246|   -5.185514|   -5.856760|   -5.258617|   -5.254953|  -12.786037|    1.987689|
|         538|  6.0309e+00|   -5.045436|   -5.185877|   -5.856719|   -5.258973|   -5.255130|  -12.786026|    1.987461|
[...]
|Paraview surface                   |surface_flow.vtu                   |
+-----------------------------------------------------------------------+
+--------------------------------------------------------------------------------------------------------------------+
|  Inner_Iter|   Time(sec)|    rms[Rho]|   rms[RhoU]|   rms[RhoV]|   rms[RhoW]|   rms[RhoE]|     rms[nu]|          CD|
+--------------------------------------------------------------------------------------------------------------------+
|       10951|  5.7842e+00|   -5.249310|   -5.394565|   -5.983846|   -5.476100|   -5.528196|   -8.152012|    1.466102|
|       10952|  5.7842e+00|   -5.249379|   -5.394606|   -5.983735|   -5.476124|   -5.528175|   -8.152766|    1.466053|
|       10953|  5.7842e+00|   -5.249451|   -5.394652|   -5.983625|   -5.476152|   -5.528157|   -8.153520|    1.466004|
|       10954|  5.7842e+00|   -5.249526|   -5.394701|   -5.983516|   -5.476183|   -5.528142|   -8.154271|    1.465955|
|       10955|  5.7842e+00|   -5.249606|   -5.394754|   -5.983409|   -5.476218|   -5.528131|   -8.155022|    1.465906|
|       10956|  5.7842e+00|   -5.249689|   -5.394811|   -5.983304|   -5.476256|   -5.528123|   -8.155770|    1.465856|
|       10957|  5.7842e+00|   -5.249776|   -5.394873|   -5.983200|   -5.476298|   -5.528119|   -8.156518|    1.465806|
|       10958|  5.7842e+00|   -5.249865|   -5.394937|   -5.983099|   -5.476343|   -5.528117|   -8.157263|    1.465756|
|       10959|  5.7842e+00|   -5.249959|   -5.395005|   -5.982998|   -5.476391|   -5.528118|   -8.158007|    1.465705|
|       10960|  5.7842e+00|   -5.250056|   -5.395078|   -5.982898|   -5.476443|   -5.528124|   -8.158750|    1.465655|
|       10961|  5.7842e+00|   -5.250158|   -5.395156|   -5.982801|   -5.476500|   -5.528134|   -8.159490|    1.465603|
|       10962|  5.7842e+00|   -5.250263|   -5.395238|   -5.982705|   -5.476561|   -5.528147|   -8.160228|    1.465552|
|       10963|  5.7842e+00|   -5.250372|   -5.395325|   -5.982611|   -5.476625|   -5.528164|   -8.160965|    1.465500|
|       10964|  5.7842e+00|   -5.250485|   -5.395415|   -5.982518|   -5.476693|   -5.528184|   -8.161699|    1.465448|
|       10965|  5.7843e+00|   -5.250601|   -5.395510|   -5.982427|   -5.476764|   -5.528207|   -8.162432|    1.465396|
|       10966|  5.7843e+00|   -5.250720|   -5.395609|   -5.982337|   -5.476838|   -5.528233|   -8.163162|    1.465343|
|       10967|  5.7842e+00|   -5.250844|   -5.395712|   -5.982250|   -5.476916|   -5.528263|   -8.163890|    1.465290|
|       10968|  5.7842e+00|   -5.250970|   -5.395819|   -5.982163|   -5.476998|   -5.528297|   -8.164616|    1.465237|
|       10969|  5.7842e+00|   -5.251101|   -5.395930|   -5.982078|   -5.477083|   -5.528334|   -8.165339|    1.465183|
|       10970|  5.7842e+00|   -5.251235|   -5.396045|   -5.981994|   -5.477172|   -5.528374|   -8.166060|    1.465129|
|       10971|  5.7842e+00|   -5.251374|   -5.396166|   -5.981912|   -5.477265|   -5.528419|   -8.166779|    1.465075|
|       10972|  5.7842e+00|   -5.251516|   -5.396290|   -5.981831|   -5.477361|   -5.528467|   -8.167495|    1.465021|
|       10973|  5.7842e+00|   -5.251661|   -5.396418|   -5.981753|   -5.477460|   -5.528518|   -8.168208|    1.464966|
|       10974|  5.7842e+00|   -5.251810|   -5.396551|   -5.981675|   -5.477564|   -5.528573|   -8.168918|    1.464911|
|       10975|  5.7842e+00|   -5.251963|   -5.396687|   -5.981599|   -5.477670|   -5.528630|   -8.169626|    1.464856|
|       10976|  5.7842e+00|   -5.252119|   -5.396827|   -5.981524|   -5.477780|   -5.528691|   -8.170331|    1.464800|
|       10977|  5.7842e+00|   -5.252278|   -5.396972|   -5.981452|   -5.477894|   -5.528756|   -8.171033|    1.464745|
|       10978|  5.7842e+00|   -5.252441|   -5.397120|   -5.981380|   -5.478010|   -5.528824|   -8.171732|    1.464688|
|       10979|  5.7842e+00|   -5.252608|   -5.397273|   -5.981311|   -5.478131|   -5.528895|   -8.172428|    1.464632|
|       10980|  5.7842e+00|   -5.252776|   -5.397427|   -5.981241|   -5.478253|   -5.528968|   -8.173121|    1.464575|
|       10981|  5.7842e+00|   -5.252948|   -5.397586|   -5.981174|   -5.478379|   -5.529044|   -8.173810|    1.464518|
|       10982|  5.7842e+00|   -5.253124|   -5.397749|   -5.981108|   -5.478508|   -5.529125|   -8.174496|    1.464461|
|       10983|  5.7842e+00|   -5.253303|   -5.397917|   -5.981044|   -5.478641|   -5.529208|   -8.175179|    1.464404|
|       10984|  5.7842e+00|   -5.253486|   -5.398088|   -5.980983|   -5.478776|   -5.529295|   -8.175859|    1.464346|
|       10985|  5.7842e+00|   -5.253671|   -5.398262|   -5.980922|   -5.478915|   -5.529384|   -8.176535|    1.464288|
|       10986|  5.7842e+00|   -5.253861|   -5.398440|   -5.980863|   -5.479057|   -5.529477|   -8.177208|    1.464230|
|       10987|  5.7842e+00|   -5.254053|   -5.398622|   -5.980806|   -5.479202|   -5.529573|   -8.177877|    1.464171|
|       10988|  5.7842e+00|   -5.254250|   -5.398808|   -5.980751|   -5.479351|   -5.529673|   -8.178542|    1.464112|
|       10989|  5.7842e+00|   -5.254450|   -5.398998|   -5.980698|   -5.479503|   -5.529776|   -8.179204|    1.464053|
|       10990|  5.7842e+00|   -5.254654|   -5.399191|   -5.980646|   -5.479658|   -5.529883|   -8.179862|    1.463994|
|       10991|  5.7842e+00|   -5.254861|   -5.399388|   -5.980596|   -5.479818|   -5.529992|   -8.180515|    1.463934|
|       10992|  5.7842e+00|   -5.255071|   -5.399589|   -5.980547|   -5.479980|   -5.530105|   -8.181165|    1.463874|
|       10993|  5.7841e+00|   -5.255284|   -5.399793|   -5.980500|   -5.480145|   -5.530220|   -8.181811|    1.463814|
|       10994|  5.7841e+00|   -5.255500|   -5.400000|   -5.980455|   -5.480314|   -5.530339|   -8.182453|    1.463754|
|       10995|  5.7841e+00|   -5.255719|   -5.400211|   -5.980410|   -5.480485|   -5.530460|   -8.183091|    1.463693|
|       10996|  5.7841e+00|   -5.255941|   -5.400425|   -5.980367|   -5.480660|   -5.530583|   -8.183724|    1.463632|
|       10997|  5.7841e+00|   -5.256166|   -5.400643|   -5.980325|   -5.480838|   -5.530710|   -8.184354|    1.463571|
|       10998|  5.7841e+00|   -5.256394|   -5.400865|   -5.980285|   -5.481018|   -5.530840|   -8.184978|    1.463509|
|       10999|  5.7841e+00|   -5.256624|   -5.401089|   -5.980246|   -5.481201|   -5.530972|   -8.185599|    1.463448|
|       11000|  5.7841e+00|   -5.256858|   -5.401317|   -5.980209|   -5.481388|   -5.531107|   -8.186215|    1.463386|
|       11001|  5.7841e+00|   -5.257095|   -5.401548|   -5.980172|   -5.481577|   -5.531245|   -8.186826|    1.463324|
|       11002|  5.7841e+00|   -5.257334|   -5.401783|   -5.980140|   -5.481769|   -5.531386|   -8.187433|    1.463261|
|       11003|  5.7841e+00|   -5.257577|   -5.402021|   -5.980110|   -5.481964|   -5.531530|   -8.188036|    1.463198|
|       11004|  5.7841e+00|   -5.257822|   -5.402262|   -5.980081|   -5.482161|   -5.531677|   -8.188633|    1.463136|
|       11005|  5.7841e+00|   -5.258071|   -5.402507|   -5.980054|   -5.482361|   -5.531826|   -8.189226|    1.463072|
|       11006|  5.7841e+00|   -5.258322|   -5.402755|   -5.980029|   -5.482564|   -5.531978|   -8.189814|    1.463009|
|       11007|  5.7841e+00|   -5.258577|   -5.403006|   -5.980004|   -5.482770|   -5.532134|   -8.190397|    1.462945|
|       11008|  5.7840e+00|   -5.258837|   -5.403264|   -5.979985|   -5.482981|   -5.532296|   -8.190975|    1.462881|
|       11009|  5.7840e+00|   -5.259103|   -5.403527|   -5.979971|   -5.483197|   -5.532463|   -8.191548|    1.462817|
|       11010|  5.7840e+00|   -5.259372|   -5.403792|   -5.979958|   -5.483416|   -5.532633|   -8.192116|    1.462753|
|       11011|  5.7840e+00|   -5.259644|   -5.404062|   -5.979945|   -5.483638|   -5.532806|   -8.192679|    1.462688|
|       11012|  5.7840e+00|   -5.259918|   -5.404334|   -5.979933|   -5.483862|   -5.532981|   -8.193237|    1.462623|
|       11013|  5.7840e+00|   -5.260196|   -5.404609|   -5.979923|   -5.484089|   -5.533159|   -8.193790|    1.462558|
|       11014|  5.7840e+00|   -5.260476|   -5.404887|   -5.979913|   -5.484318|   -5.533340|   -8.194337|    1.462493|
|       11015|  5.7840e+00|   -5.260759|   -5.405168|   -5.979903|   -5.484550|   -5.533522|   -8.194879|    1.462427|
|       11016|  5.7840e+00|   -5.261044|   -5.405452|   -5.979894|   -5.484784|   -5.533707|   -8.195415|    1.462361|
|       11017|  5.7840e+00|   -5.261331|   -5.405738|   -5.979886|   -5.485020|   -5.533893|   -8.195947|    1.462295|
|       11018|  5.7839e+00|   -5.261622|   -5.406027|   -5.979880|   -5.485259|   -5.534083|   -8.196472|    1.462229|
|       11019|  5.7839e+00|   -5.261916|   -5.406319|   -5.979875|   -5.485501|   -5.534276|   -8.196992|    1.462162|
|       11020|  5.7839e+00|   -5.262214|   -5.406614|   -5.979873|   -5.485747|   -5.534472|   -8.197507|    1.462095|
|       11021|  5.7839e+00|   -5.262515|   -5.406912|   -5.979874|   -5.485994|   -5.534671|   -8.198016|    1.462028|
|       11022|  5.7839e+00|   -5.262818|   -5.407214|   -5.979876|   -5.486244|   -5.534872|   -8.198519|    1.461961|
|       11023|  5.7839e+00|   -5.263123|   -5.407517|   -5.979876|   -5.486497|   -5.535075|   -8.199016|    1.461893|
|       11024|  5.7839e+00|   -5.263430|   -5.407824|   -5.979876|   -5.486751|   -5.535279|   -8.199507|    1.461826|
|       11025|  5.7839e+00|   -5.263739|   -5.408132|   -5.979875|   -5.487008|   -5.535485|   -8.199993|    1.461758|
|       11026|  5.7839e+00|   -5.264050|   -5.408444|   -5.979878|   -5.487267|   -5.535693|   -8.200473|    1.461689|
|       11027|  5.7839e+00|   -5.264365|   -5.408759|   -5.979883|   -5.487530|   -5.535905|   -8.200946|    1.461621|
|       11028|  5.7838e+00|   -5.264683|   -5.409077|   -5.979889|   -5.487796|   -5.536119|   -8.201414|    1.461552|
|       11029|  5.7838e+00|   -5.265002|   -5.409397|   -5.979895|   -5.488063|   -5.536334|   -8.201876|    1.461483|
|       11030|  5.7838e+00|   -5.265323|   -5.409720|   -5.979901|   -5.488334|   -5.536552|   -8.202331|    1.461414|
|       11031|  5.7838e+00|   -5.265647|   -5.410046|   -5.979909|   -5.488606|   -5.536771|   -8.202781|    1.461345|
|       11032|  5.7838e+00|   -5.265974|   -5.410374|   -5.979918|   -5.488882|   -5.536994|   -8.203224|    1.461275|
|       11033|  5.7838e+00|   -5.266303|   -5.410705|   -5.979927|   -5.489160|   -5.537218|   -8.203661|    1.461205|
|       11034|  5.7838e+00|   -5.266634|   -5.411038|   -5.979936|   -5.489440|   -5.537445|   -8.204091|    1.461135|
|       11035|  5.7838e+00|   -5.266967|   -5.411374|   -5.979946|   -5.489722|   -5.537673|   -8.204516|    1.461065|
|       11036|  5.7838e+00|   -5.267303|   -5.411713|   -5.979957|   -5.490007|   -5.537904|   -8.204934|    1.460995|
|       11037|  5.7838e+00|   -5.267641|   -5.412055|   -5.979968|   -5.490295|   -5.538137|   -8.205345|    1.460924|
|       11038|  5.7838e+00|   -5.267981|   -5.412399|   -5.979978|   -5.490586|   -5.538372|   -8.205751|    1.460853|
|       11039|  5.7838e+00|   -5.268323|   -5.412745|   -5.979989|   -5.490879|   -5.538609|   -8.206149|    1.460782|
|       11040|  5.7838e+00|   -5.268668|   -5.413094|   -5.980001|   -5.491175|   -5.538849|   -8.206541|    1.460710|
|       11041|  5.7838e+00|   -5.269016|   -5.413446|   -5.980015|   -5.491474|   -5.539091|   -8.206927|    1.460638|
|       11042|  5.7837e+00|   -5.269366|   -5.413800|   -5.980029|   -5.491776|   -5.539335|   -8.207306|    1.460567|
|       11043|  5.7837e+00|   -5.269718|   -5.414157|   -5.980043|   -5.492080|   -5.539581|   -8.207678|    1.460494|
|       11044|  5.7837e+00|   -5.270072|   -5.414517|   -5.980056|   -5.492386|   -5.539829|   -8.208044|    1.460422|
|       11045|  5.7837e+00|   -5.270427|   -5.414880|   -5.980070|   -5.492695|   -5.540079|   -8.208403|    1.460349|
|       11046|  5.7837e+00|   -5.270785|   -5.415245|   -5.980085|   -5.493006|   -5.540330|   -8.208755|    1.460277|
|       11047|  5.7837e+00|   -5.271144|   -5.415613|   -5.980100|   -5.493320|   -5.540584|   -8.209101|    1.460204|
|       11048|  5.7837e+00|   -5.271507|   -5.415984|   -5.980119|   -5.493636|   -5.540841|   -8.209440|    1.460130|
|       11049|  5.7837e+00|   -5.271873|   -5.416357|   -5.980140|   -5.493956|   -5.541101|   -8.209772|    1.460057|
|       11050|  5.7836e+00|   -5.272241|   -5.416734|   -5.980161|   -5.494279|   -5.541363|   -8.210097|    1.459983|
|       11051|  5.7836e+00|   -5.272611|   -5.417113|   -5.980183|   -5.494604|   -5.541627|   -8.210415|    1.459909|
|       11052|  5.7836e+00|   -5.272984|   -5.417495|   -5.980207|   -5.494933|   -5.541895|   -8.210727|    1.459835|
|       11053|  5.7836e+00|   -5.273359|   -5.417881|   -5.980232|   -5.495264|   -5.542164|   -8.211031|    1.459760|
|       11054|  5.7836e+00|   -5.273737|   -5.418269|   -5.980258|   -5.495598|   -5.542436|   -8.211329|    1.459686|
|       11055|  5.7836e+00|   -5.274117|   -5.418660|   -5.980286|   -5.495935|   -5.542711|   -8.211619|    1.459611|
|       11056|  5.7836e+00|   -5.274500|   -5.419055|   -5.980314|   -5.496275|   -5.542988|   -8.211903|    1.459536|
|       11057|  5.7836e+00|   -5.274887|   -5.419453|   -5.980346|   -5.496618|   -5.543270|   -8.212180|    1.459460|
|       11058|  5.7836e+00|   -5.275277|   -5.419855|   -5.980381|   -5.496966|   -5.543555|   -8.212449|    1.459385|
|       11059|  5.7836e+00|   -5.275670|   -5.420259|   -5.980418|   -5.497317|   -5.543843|   -8.212712|    1.459309|
|       11060|  5.7836e+00|   -5.276065|   -5.420667|   -5.980455|   -5.497670|   -5.544133|   -8.212968|    1.459233|
|       11061|  5.7835e+00|   -5.276463|   -5.421078|   -5.980493|   -5.498026|   -5.544426|   -8.213216|    1.459157|
|       11062|  5.7835e+00|   -5.276863|   -5.421492|   -5.980530|   -5.498385|   -5.544721|   -8.213458|    1.459080|
|       11063|  5.7835e+00|   -5.277265|   -5.421910|   -5.980567|   -5.498747|   -5.545018|   -8.213692|    1.459004|
|       11064|  5.7835e+00|   -5.277670|   -5.422331|   -5.980606|   -5.499112|   -5.545319|   -8.213920|    1.458927|
|       11065|  5.7835e+00|   -5.278078|   -5.422755|   -5.980645|   -5.499480|   -5.545622|   -8.214140|    1.458849|
|       11066|  5.7835e+00|   -5.278488|   -5.423183|   -5.980686|   -5.499851|   -5.545928|   -8.214353|    1.458772|
|       11067|  5.7835e+00|   -5.278901|   -5.423614|   -5.980729|   -5.500226|   -5.546237|   -8.214560|    1.458694|
|       11068|  5.7835e+00|   -5.279317|   -5.424048|   -5.980773|   -5.500604|   -5.546550|   -8.214759|    1.458617|
|       11069|  5.7835e+00|   -5.279736|   -5.424486|   -5.980818|   -5.500985|   -5.546866|   -8.214951|    1.458539|
|       11070|  5.7835e+00|   -5.280159|   -5.424927|   -5.980865|   -5.501371|   -5.547185|   -8.215136|    1.458460|
|       11071|  5.7835e+00|   -5.280585|   -5.425373|   -5.980914|   -5.501760|   -5.547508|   -8.215313|    1.458382|
|       11072|  5.7835e+00|   -5.281014|   -5.425822|   -5.980964|   -5.502152|   -5.547834|   -8.215484|    1.458303|
|       11073|  5.7835e+00|   -5.281446|   -5.426274|   -5.981016|   -5.502548|   -5.548164|   -8.215648|    1.458224|
|       11074|  5.7835e+00|   -5.281882|   -5.426730|   -5.981070|   -5.502947|   -5.548497|   -8.215804|    1.458145|
|       11075|  5.7835e+00|   -5.282320|   -5.427190|   -5.981126|   -5.503351|   -5.548834|   -8.215954|    1.458065|
|       11076|  5.7835e+00|   -5.282762|   -5.427654|   -5.981184|   -5.503757|   -5.549174|   -8.216096|    1.457986|
|       11077|  5.7835e+00|   -5.283207|   -5.428121|   -5.981242|   -5.504166|   -5.549517|   -8.216231|    1.457906|
|       11078|  5.7834e+00|   -5.283655|   -5.428592|   -5.981303|   -5.504580|   -5.549864|   -8.216360|    1.457826|
|       11079|  5.7834e+00|   -5.284109|   -5.429066|   -5.981366|   -5.504999|   -5.550217|   -8.216481|    1.457745|
|       11080|  5.7834e+00|   -5.284565|   -5.429545|   -5.981431|   -5.505421|   -5.550572|   -8.216595|    1.457665|
|       11081|  5.7834e+00|   -5.285026|   -5.430028|   -5.981499|   -5.505847|   -5.550932|   -8.216702|    1.457584|
|       11082|  5.7834e+00|   -5.285489|   -5.430513|   -5.981568|   -5.506276|   -5.551294|   -8.216802|    1.457503|
|       11083|  5.7834e+00|   -5.285955|   -5.431003|   -5.981637|   -5.506709|   -5.551660|   -8.216896|    1.457422|
|       11084|  5.7834e+00|   -5.286423|   -5.431496|   -5.981705|   -5.507145|   -5.552028|   -8.216982|    1.457340|
|       11085|  5.7834e+00|   -5.286895|   -5.431992|   -5.981775|   -5.507586|   -5.552399|   -8.217061|    1.457258|
|       11086|  5.7834e+00|   -5.287370|   -5.432492|   -5.981846|   -5.508029|   -5.552774|   -8.217133|    1.457177|
|       11087|  5.7834e+00|   -5.287847|   -5.432996|   -5.981918|   -5.508477|   -5.553152|   -8.217199|    1.457094|
|       11088|  5.7834e+00|   -5.288328|   -5.433503|   -5.981990|   -5.508927|   -5.553533|   -8.217257|    1.457012|
|       11089|  5.7834e+00|   -5.288812|   -5.434014|   -5.982065|   -5.509382|   -5.553918|   -8.217309|    1.456930|
|       11090|  5.7834e+00|   -5.289299|   -5.434529|   -5.982139|   -5.509840|   -5.554306|   -8.217354|    1.456847|
|       11091|  5.7834e+00|   -5.289789|   -5.435047|   -5.982214|   -5.510301|   -5.554697|   -8.217392|    1.456764|
|       11092|  5.7834e+00|   -5.290283|   -5.435569|   -5.982292|   -5.510766|   -5.555091|   -8.217423|    1.456681|
|       11093|  5.7834e+00|   -5.290779|   -5.436094|   -5.982372|   -5.511235|   -5.555489|   -8.217447|    1.456597|

scontrol show job 1178841
JobId=1178841 JobName=m6_aoa40
   UserId=anthonyy(3152141) GroupId=anthonyy(3152141) MCS_label=N/A
   Priority=532066 Nice=0 Account=rrg-jphickey QOS=normal
   JobState=COMPLETING Reason=TimeLimit Dependency=(null)
   Requeue=0 Restarts=0 BatchFlag=1 Reboot=0 ExitCode=0:15
   RunTime=18:00:22 TimeLimit=18:00:00 TimeMin=N/A
   SubmitTime=2026-03-15T02:51:58 EligibleTime=2026-03-15T02:51:58
   AccrueTime=2026-03-15T02:51:58
   StartTime=2026-03-15T03:51:51 EndTime=2026-03-15T21:52:13 Deadline=N/A
   SuspendTime=None SecsPreSuspend=0 LastSchedEval=2026-03-15T03:51:51 Scheduler=Main
   Partition=compute AllocNode:Sid=tri-login04:768438
   ReqNodeList=(null) ExcNodeList=(null)
   NodeList=tri[0331,0339]
   BatchHost=tri0331
   NumNodes=2 NumCPUs=384 NumTasks=128 CPUs/Task=1 ReqB:S:C:T=0:0:*:*
   ReqTRES=cpu=128,mem=1534000M,node=2,billing=128
   AllocTRES=cpu=384,mem=1534000M,node=2,billing=384
   Socks/Node=* NtasksPerN:B:S:C=64:0:*:* CoreSpec=*
   MinCPUsNode=64 MinMemoryNode=767000M MinTmpDiskNode=0
   Features=(null) DelayBoot=00:00:00
   OverSubscribe=NO Contiguous=0 Licenses=(null) Network=(null)
   Command=/scratch/anthonyy/reentry/orion/config/run.sh
   WorkDir=/scratch/anthonyy/reentry/orion/cases/m6_aoa40
   Comment=/opt/slurm/bin/sbatch --export=NONE --get-user-env=L --job-name m6_aoa40 --nodes 2 --ntasks-per-node 64 --cpus-per-task 1 --mem 0 --time 18:00:00 --account rrg-jphickey --output orion_%j.out --error orion_%j.err --chdir /scratch/anthonyy/reentry/orion/cases/m6_aoa40 /scratch/anthonyy/reentry/orion/config/run.sh /scratch/anthonyy/reentry/orion/config/generated/m6_aoa40.cfg 
   StdErr=/scratch/anthonyy/reentry/orion/cases/m6_aoa40/orion_1178841.err
   StdIn=/dev/null
   StdOut=/scratch/anthonyy/reentry/orion/cases/m6_aoa40/orion_1178841.out
   TresPerTask=cpu=1
   

sacct -j 1178841
JobID           JobName    Account    Elapsed  MaxVMSize     MaxRSS  SystemCPU    UserCPU ExitCode 
------------ ---------- ---------- ---------- ---------- ---------- ---------- ---------- -------- 
1178841        m6_aoa40 rrg-jphic+   18:00:22                         09:47:08 94-14:53:+      0:0 
1178841.bat+      batch rrg-jphic+   18:00:23          0     10352K  00:00.098  00:00.595     0:15 
1178841.ext+     extern rrg-jphic+   18:00:22                         00:00:00   00:00:00      0:0 
1178841.0       SU2_CFD rrg-jphic+   18:00:23          0  10729248K   09:47:08 94-14:53:+     0:15 

