Nodes:  tri[0982,1202]
Tasks:  128
NPN:    64
Config: /scratch/anthonyy/reentry/orion/config/generated/m6_aoa0.cfg

-------------------------------------------------------------------------
|    ___ _   _ ___                                                      |
|   / __| | | |_  )   Release 7.5.1 "Blackbird"                         |
|   \__ \ |_| |/ /                                                      |
|   |___/\___//___|   Suite (Computational Fluid Dynamics Code)         |
|                                                                       |
-------------------------------------------------------------------------
| SU2 Project Website: https://su2code.github.io                        |
|                                                                       |
| The SU2 Project is maintained by the SU2 Foundation                   |
| (http://su2foundation.org)                                            |
-------------------------------------------------------------------------
| Copyright 2012-2023, SU2 Contributors                                 |
|                                                                       |
| SU2 is free software; you can redistribute it and/or                  |
| modify it under the terms of the GNU Lesser General Public            |
| License as published by the Free Software Foundation; either          |
| version 2.1 of the License, or (at your option) any later version.    |
|                                                                       |
| SU2 is distributed in the hope that it will be useful,                |
| but WITHOUT ANY WARRANTY; without even the implied warranty of        |
| MERCHANTABILITY or FITNESS FOR A PARTICULAR PURPOSE. See the GNU      |
| Lesser General Public License for more details.                       |
|                                                                       |
| You should have received a copy of the GNU Lesser General Public      |
| License along with SU2. If not, see <http://www.gnu.org/licenses/>.   |
-------------------------------------------------------------------------

Parsing config file for zone 0

----------------- Physical Case Definition ( Zone 0 ) -------------------
Compressible RANS equations.
Turbulence model: Spalart-Allmaras-noft2
Hybrid RANS/LES: No Hybrid RANS/LES
Mach number: 6.
Angle of attack (AoA): 0 deg, and angle of sideslip (AoS): 0 deg.
Reynolds number: 6.86229e+08. Reference length 5.
Reading and writing binary SU2 native restart files.
Read flow solution from: restart_flow.dat.
Non-Dimensional simulation (V=1.0, Rho=1.0, T=1.0 at the farfield).
The reference area will be computed using y(2D) or z(3D) projection.
The semi-span will be computed using the max y(3D) value.
The reference length is 0.64607 m.
Reference origin for moment evaluation is (0.25, 0, 0).
Surface(s) where the force coefficients are evaluated: ORION_SURFACE.

Input mesh file name: ../../mesh/fine.su2

--------------- Space Numerical Integration ( Zone 0 ) ------------------
Jameson-Schmidt-Turkel scheme (2nd order in space) for the flow inviscid terms.
JST viscous coefficients (2nd & 4th): 0.5, 0.02.
The method includes a grid stretching correction (p = 0.3).
Scalar upwind solver for the turbulence model.
First order integration in space.
Average of gradients with correction (viscous flow terms).
Average of gradients with correction (viscous turbulence terms).
Gradient for upwind reconstruction: Green-Gauss.
Gradient for viscous and source terms: Green-Gauss.

--------------- Time Numerical Integration  ( Zone 0 ) ------------------
Local time stepping (steady state simulation).
Euler implicit method for the flow equations.
FGMRES is used for solving the linear system.
Using a ILU(0) preconditioning.
Convergence criteria of the linear solver: 1e-06.
Max number of linear iterations: 100.
CFL adaptation. Factor down: 0.5, factor up: 1.1,
                lower limit: 0.05, upper limit: 0.5,
                acceptable linear residual: 0.001.
Courant-Friedrichs-Lewy number:     0.03
Euler implicit time integration for the turbulence model.

------------------ Convergence Criteria  ( Zone 0 ) ---------------------
Maximum number of solver subiterations: 999999.
Begin convergence monitoring at iteration 5.
Residual minimum value: 1e-8.
Cauchy series min. value: 1e-10.
Number of Cauchy elements: 100.
Begin windowed time average at iteration 0.

-------------------- Output Information ( Zone 0 ) ----------------------
File writing frequency: 
+------------------------------------+
|                     File| Frequency|
+------------------------------------+
|                  RESTART|       150|
|                 PARAVIEW|       150|
|         SURFACE_PARAVIEW|       150|
+------------------------------------+
Writing the convergence history file every 1 inner iterations.
Writing the screen convergence history every 1 inner iterations.
The tabular file format is CSV (.csv).
Convergence history file name: history.
Forces breakdown file name: forces_breakdown.dat.
Surface file name: surface_flow.
Volume file name: flow.
Restart file name: restart_flow.

------------- Config File Boundary Information ( Zone 0 ) ---------------
+-----------------------------------------------------------------------+
|                        Marker Type|                        Marker Name|
+-----------------------------------------------------------------------+
|                          Far-field|                           FARFIELD|
+-----------------------------------------------------------------------+
|                     Heat flux wall|                      ORION_SURFACE|
+-----------------------------------------------------------------------+

-------------------- Output Preprocessing ( Zone 0 ) --------------------

WARNING: SURFACE_PRESSURE_DROP can only be computed for at least 2 surfaces (outlet, inlet, ...)

Screen output fields: INNER_ITER, WALL_TIME, RMS_DENSITY, RMS_MOMENTUM-X, RMS_MOMENTUM-Y, RMS_MOMENTUM-Z, RMS_ENERGY, RMS_NU_TILDE, DRAG
History output group(s): ITER, RMS_RES
Convergence field(s): RMS_DENSITY
Warning: No (valid) fields chosen for time convergence monitoring. Time convergence monitoring inactive.
Volume output fields: MACH, PRESSURE, TEMPERATURE, DENSITY, HEAT_FLUX, Y_PLUS, COORDINATES, SOLUTION

------------------- Geometry Preprocessing ( Zone 0 ) -------------------
Three dimensional problem.
62211324 grid points before partitioning.
190879888 volume elements before partitioning.
2 surface markers.
4104 boundary elements in index 0 (Marker = FARFIELD).
1824836 boundary elements in index 1 (Marker = ORION_SURFACE).
Executing the partitioning functions.
Building the graph adjacency structure.
Calling ParMETIS... graph partitioning complete (4959327 edge cuts).
Distributing ParMETIS coloring.
Rebalancing vertices.
Rebalancing volume element connectivity.
Rebalancing markers and surface elements.
66952290 vertices including ghost points. 
197997438 interior elements including halo cells. 
103171259 tetrahedra.
94500655 prisms.
325524 pyramids.
Establishing MPI communication patterns.
Setting point connectivity.
Renumbering points (Reverse Cuthill McKee Ordering).
Recomputing point connectivity.
Setting element connectivity.
Checking the numerical grid orientation.
All volume elements are correctly orientend.
All surface elements are correctly orientend.
Identifying edges and vertices.
Setting the control volume structure.
Volume of the computational grid: 535693.
Searching for the closest normal neighbors to the surfaces.
Storing a mapping from global to local point index.
Compute the surface curvature.
Max K: 132.896. Mean K: 3.9104. Standard deviation K: 7.49569.
Checking for periodicity.
Computing mesh quality statistics for the dual control volumes.
+--------------------------------------------------------------+
|           Mesh Quality Metric|        Minimum|        Maximum|
+--------------------------------------------------------------+
|    Orthogonality Angle (deg.)|        53.0661|             90|
|     CV Face Area Aspect Ratio|        1.01143|        75298.5|
|           CV Sub-Volume Ratio|        1.00029|        45.0258|
+--------------------------------------------------------------+
Finding max control volume width.
Communicating number of neighbors.
Reference area = 11.531 m^2.
Semi-span length = 2.49999 m.
Wetted area = 57.9072 m^2.
Area projection in the x-plane = 19.6343 m^2, y-plane = 11.531 m^2, z-plane = 11.531 m^2.
Max. coordinate in the x-direction = 2.575 m, y-direction = 2.49999 m, z-direction = 2.49999 m.
Min. coordinate in the x-direction = -0.71 m, y-direction = -2.49999 m, z-direction = -2.5 m.
Computing wall distances.

-------------------- Solver Preprocessing ( Zone 0 ) --------------------
Viscous flow: Computing pressure using the ideal gas law
based on the free-stream temperature and a density computed
from the Reynolds number.
Force coefficients computed using free-stream values.

-- Models:
+------------------------------------------------------------------------------+
|          Viscosity Model|        Conductivity Model|              Fluid Model|
+------------------------------------------------------------------------------+
|               SUTHERLAND|          CONSTANT_PRANDTL|             STANDARD_AIR|
+------------------------------------------------------------------------------+
-- Fluid properties:
+------------------------------------------------------------------------------+
|                  Name|    Dim. value|    Ref. value|      Unit|Non-dim. value|
+------------------------------------------------------------------------------+
|        Ref. Viscosity|     1.716e-05|       2455.73|   N.s/m^2|   6.98773e-09|
|      Sutherland Temp.|        273.15|        288.15|         K|      0.947944|
|     Sutherland Const.|         110.4|        288.15|         K|      0.383134|
+------------------------------------------------------------------------------+
|        Prandtl (Lam.)|             -|             -|         -|          0.72|
|       Prandtl (Turb.)|             -|             -|         -|           0.9|
+------------------------------------------------------------------------------+
|          Gas Constant|       287.058|       14467.7|  N.m/kg.K|     0.0198413|
|      Spec. Heat Ratio|             -|             -|         -|           1.4|
+------------------------------------------------------------------------------+
-- Initial and free-stream conditions:
+------------------------------------------------------------------------------+
|                  Name|    Dim. value|    Ref. value|      Unit|Non-dim. value|
+------------------------------------------------------------------------------+
|       Static Pressure|       99485.6|   5.01407e+06|        Pa|     0.0198413|
|               Density|       1.20274|       1.20274|    kg/m^3|             1|
|           Temperature|        288.15|        288.15|         K|             1|
|          Total Energy|   2.29123e+06|   4.16887e+06|   m^2/s^2|      0.549603|
|            Velocity-X|       2041.78|       2041.78|       m/s|             1|
|            Velocity-Y|             0|       2041.78|       m/s|             0|
|            Velocity-Z|             0|       2041.78|       m/s|             0|
|    Velocity Magnitude|       2041.78|       2041.78|       m/s|             1|
+------------------------------------------------------------------------------+
|             Viscosity|    1.7893e-05|       2455.73|   N.s/m^2|    7.2862e-09|
|          Conductivity|             -|   3.55289e+07|   W/m^2.K|             -|
|     Turb. Kin. Energy|       15633.3|   4.16887e+06|   m^2/s^2|       0.00375|
|     Spec. Dissipation|   1.05085e+08|       2041.78|       1/s|       51467.1|
+------------------------------------------------------------------------------+
|           Mach Number|             -|             -|         -|             6|
|       Reynolds Number|             -|             -|         -|   6.86229e+08|
+------------------------------------------------------------------------------+
Initialize Jacobian structure (Navier-Stokes). MG level: 0.
Initialize Jacobian structure (SA model).

------------------- Numerics Preprocessing ( Zone 0 ) -------------------

----------------- Integration Preprocessing ( Zone 0 ) ------------------

------------------- Iteration Preprocessing ( Zone 0 ) ------------------
Euler/Navier-Stokes/RANS fluid iteration.

------------------------------ Begin Solver -----------------------------

Simulation Run using the Single-zone Driver
WARNING: SU2 was not compiled for an AVX-capable architecture. Performance could be better,
         see https://su2code.github.io/docs_v7/Build-SU2-Linux-MacOS/#compiler-optimizations
+--------------------------------------------------------------------------------------------------------------------+
|  Inner_Iter|   Time(sec)|    rms[Rho]|   rms[RhoU]|   rms[RhoV]|   rms[RhoW]|   rms[RhoE]|     rms[nu]|          CD|
+--------------------------------------------------------------------------------------------------------------------+
|           0|  9.4490e+00|   -5.869342|   -5.926233|   -6.635732|   -6.497859|   -6.163328|   -8.430979|    2.493058|
|           1|  7.2118e+00|   -5.869378|   -5.926260|   -6.635810|   -6.497932|   -6.163387|   -8.431013|    2.493057|
|           2|  6.3343e+00|   -5.869434|   -5.926302|   -6.635935|   -6.498048|   -6.163478|   -8.431094|    2.493056|
|           3|  5.8927e+00|   -5.869496|   -5.926348|   -6.636070|   -6.498174|   -6.163578|   -8.431184|    2.493055|
|           4|  5.6283e+00|   -5.869563|   -5.926398|   -6.636216|   -6.498310|   -6.163686|   -8.431282|    2.493054|
|           5|  5.4489e+00|   -5.869635|   -5.926452|   -6.636374|   -6.498456|   -6.163803|   -8.431391|    2.493052|
|           6|  5.3281e+00|   -5.869713|   -5.926511|   -6.636544|   -6.498613|   -6.163928|   -8.431510|    2.493051|
|           7|  5.2314e+00|   -5.869798|   -5.926575|   -6.636727|   -6.498782|   -6.164064|   -8.431641|    2.493049|
|           8|  5.1555e+00|   -5.869889|   -5.926643|   -6.636923|   -6.498962|   -6.164210|   -8.431785|    2.493048|
|           9|  5.0949e+00|   -5.869987|   -5.926717|   -6.637133|   -6.499155|   -6.164365|   -8.431944|    2.493046|
|          10|  5.0456e+00|   -5.870092|   -5.926797|   -6.637357|   -6.499359|   -6.164532|   -8.432118|    2.493044|
|          11|  5.0069e+00|   -5.870205|   -5.926882|   -6.637596|   -6.499575|   -6.164709|   -8.432310|    2.493041|
|          12|  4.9752e+00|   -5.870325|   -5.926973|   -6.637849|   -6.499803|   -6.164897|   -8.432521|    2.493039|
|          13|  4.9749e+00|   -5.870452|   -5.927070|   -6.638115|   -6.500042|   -6.165096|   -8.432754|    2.493036|
|          14|  4.9793e+00|   -5.870586|   -5.927172|   -6.638396|   -6.500292|   -6.165304|   -8.433009|    2.493033|
|          15|  4.9824e+00|   -5.870728|   -5.927279|   -6.638690|   -6.500551|   -6.165521|   -8.433290|    2.493029|
|          16|  4.9851e+00|   -5.870876|   -5.927391|   -6.638995|   -6.500817|   -6.165746|   -8.433599|    2.493026|
|          17|  4.9928e+00|   -5.871029|   -5.927507|   -6.639311|   -6.501089|   -6.165976|   -8.433939|    2.493021|
|          18|  4.9979e+00|   -5.871189|   -5.927627|   -6.639636|   -6.501363|   -6.166212|   -8.434314|    2.493017|
|          19|  5.0049e+00|   -5.871352|   -5.927751|   -6.639966|   -6.501637|   -6.166449|   -8.434725|    2.493012|
|          20|  5.0088e+00|   -5.871516|   -5.927873|   -6.640299|   -6.501907|   -6.166681|   -8.435178|    2.493006|
|          21|  5.0131e+00|   -5.871677|   -5.927990|   -6.640631|   -6.502168|   -6.166901|   -8.435676|    2.493000|
|          22|  5.0203e+00|   -5.871831|   -5.928098|   -6.640956|   -6.502413|   -6.167103|   -8.436223|    2.492993|
|          23|  5.0416e+00|   -5.871972|   -5.928189|   -6.641269|   -6.502637|   -6.167274|   -8.436826|    2.492986|
|          24|  5.0604e+00|   -5.872092|   -5.928257|   -6.641564|   -6.502830|   -6.167402|   -8.437488|    2.492978|
|          25|  5.0758e+00|   -5.872183|   -5.928292|   -6.641832|   -6.502985|   -6.167472|   -8.438216|    2.492969|
|          26|  5.0929e+00|   -5.872232|   -5.928280|   -6.642063|   -6.503090|   -6.167463|   -8.439053|    2.492960|
|          27|  5.1104e+00|   -5.872269|   -5.928252|   -6.642296|   -6.503196|   -6.167429|   -8.439909|    2.492951|
|          28|  5.1261e+00|   -5.872300|   -5.928214|   -6.642539|   -6.503313|   -6.167383|   -8.440762|    2.492942|
|          29|  5.1371e+00|   -5.872327|   -5.928167|   -6.642789|   -6.503442|   -6.167326|   -8.441615|    2.492933|
|          30|  5.1491e+00|   -5.872348|   -5.928112|   -6.643048|   -6.503581|   -6.167259|   -8.442466|    2.492923|
|          31|  5.1605e+00|   -5.872364|   -5.928049|   -6.643314|   -6.503730|   -6.167182|   -8.443315|    2.492914|
|          32|  5.1705e+00|   -5.872377|   -5.927979|   -6.643588|   -6.503889|   -6.167096|   -8.444163|    2.492905|
|          33|  5.1794e+00|   -5.872386|   -5.927903|   -6.643869|   -6.504058|   -6.167003|   -8.445009|    2.492896|
|          34|  5.1891e+00|   -5.872391|   -5.927821|   -6.644156|   -6.504235|   -6.166902|   -8.445853|    2.492887|
|          35|  5.1991e+00|   -5.872394|   -5.927734|   -6.644448|   -6.504421|   -6.166795|   -8.446695|    2.492878|
|          36|  5.2061e+00|   -5.872395|   -5.927644|   -6.644745|   -6.504615|   -6.166683|   -8.447535|    2.492869|
|          37|  5.2201e+00|   -5.872394|   -5.927550|   -6.645047|   -6.504817|   -6.166567|   -8.448373|    2.492860|
|          38|  5.2362e+00|   -5.872393|   -5.927454|   -6.645354|   -6.505026|   -6.166448|   -8.449209|    2.492851|
|          39|  5.2454e+00|   -5.872391|   -5.927357|   -6.645664|   -6.505242|   -6.166327|   -8.450042|    2.492842|
|          40|  5.2553e+00|   -5.872390|   -5.927259|   -6.645978|   -6.505464|   -6.166204|   -8.450873|    2.492833|
|          41|  5.2616e+00|   -5.872389|   -5.927161|   -6.646295|   -6.505693|   -6.166081|   -8.451701|    2.492823|
|          42|  5.2670e+00|   -5.872390|   -5.927064|   -6.646615|   -6.505927|   -6.165959|   -8.452527|    2.492814|
|          43|  5.2744e+00|   -5.872394|   -5.926969|   -6.646938|   -6.506166|   -6.165839|   -8.453350|    2.492805|
|          44|  5.2793e+00|   -5.872400|   -5.926877|   -6.647264|   -6.506408|   -6.165722|   -8.454171|    2.492796|
|          45|  5.2855e+00|   -5.872409|   -5.926787|   -6.647591|   -6.506654|   -6.165607|   -8.454988|    2.492787|
|          46|  5.2914e+00|   -5.872421|   -5.926700|   -6.647920|   -6.506904|   -6.165495|   -8.455803|    2.492778|
|          47|  5.2956e+00|   -5.872437|   -5.926617|   -6.648249|   -6.507156|   -6.165388|   -8.456614|    2.492769|
|          48|  5.2996e+00|   -5.872458|   -5.926539|   -6.648580|   -6.507412|   -6.165285|   -8.457423|    2.492760|
|          49|  5.3050e+00|   -5.872483|   -5.926466|   -6.648911|   -6.507669|   -6.165188|   -8.458228|    2.492751|
|          50|  5.3080e+00|   -5.872513|   -5.926398|   -6.649242|   -6.507929|   -6.165096|   -8.459029|    2.492742|
|          51|  5.3109e+00|   -5.872548|   -5.926335|   -6.649572|   -6.508190|   -6.165011|   -8.459828|    2.492733|
|          52|  5.3150e+00|   -5.872589|   -5.926279|   -6.649902|   -6.508454|   -6.164932|   -8.460622|    2.492724|
|          53|  5.3188e+00|   -5.872635|   -5.926228|   -6.650232|   -6.508719|   -6.164859|   -8.461413|    2.492715|
|          54|  5.3213e+00|   -5.872688|   -5.926184|   -6.650561|   -6.508985|   -6.164794|   -8.462201|    2.492706|
|          55|  5.3274e+00|   -5.872746|   -5.926147|   -6.650889|   -6.509252|   -6.164735|   -8.462985|    2.492697|
|          56|  5.3322e+00|   -5.872811|   -5.926115|   -6.651216|   -6.509520|   -6.164684|   -8.463764|    2.492688|
|          57|  5.3349e+00|   -5.872882|   -5.926091|   -6.651542|   -6.509790|   -6.164640|   -8.464540|    2.492679|
|          58|  5.3364e+00|   -5.872959|   -5.926073|   -6.651865|   -6.510059|   -6.164603|   -8.465312|    2.492670|
|          59|  5.3392e+00|   -5.873042|   -5.926062|   -6.652188|   -6.510328|   -6.164573|   -8.466079|    2.492661|
|          60|  5.3409e+00|   -5.873131|   -5.926058|   -6.652508|   -6.510598|   -6.164549|   -8.466842|    2.492652|
|          61|  5.3432e+00|   -5.873227|   -5.926060|   -6.652827|   -6.510868|   -6.164533|   -8.467601|    2.492643|
|          62|  5.3458e+00|   -5.873329|   -5.926068|   -6.653144|   -6.511138|   -6.164524|   -8.468356|    2.492634|
|          63|  5.3477e+00|   -5.873436|   -5.926083|   -6.653458|   -6.511407|   -6.164521|   -8.469105|    2.492625|
|          64|  5.3501e+00|   -5.873551|   -5.926104|   -6.653770|   -6.511677|   -6.164525|   -8.469851|    2.492616|
|          65|  5.3519e+00|   -5.873672|   -5.926132|   -6.654080|   -6.511946|   -6.164536|   -8.470591|    2.492607|
|          66|  5.3532e+00|   -5.873798|   -5.926166|   -6.654387|   -6.512215|   -6.164553|   -8.471327|    2.492599|
|          67|  5.3555e+00|   -5.873929|   -5.926205|   -6.654692|   -6.512482|   -6.164574|   -8.472058|    2.492590|
|          68|  5.3576e+00|   -5.874066|   -5.926250|   -6.654994|   -6.512748|   -6.164601|   -8.472783|    2.492581|
|          69|  5.3605e+00|   -5.874208|   -5.926299|   -6.655294|   -6.513013|   -6.164632|   -8.473504|    2.492572|
|          70|  5.3610e+00|   -5.874355|   -5.926354|   -6.655591|   -6.513277|   -6.164669|   -8.474220|    2.492563|
|          71|  5.3622e+00|   -5.874507|   -5.926414|   -6.655886|   -6.513540|   -6.164710|   -8.474930|    2.492554|
|          72|  5.3628e+00|   -5.874664|   -5.926479|   -6.656177|   -6.513802|   -6.164756|   -8.475635|    2.492545|
|          73|  5.3637e+00|   -5.874826|   -5.926549|   -6.656467|   -6.514063|   -6.164806|   -8.476334|    2.492537|
|          74|  5.3653e+00|   -5.874993|   -5.926624|   -6.656753|   -6.514323|   -6.164860|   -8.477028|    2.492528|
|          75|  5.3682e+00|   -5.875164|   -5.926703|   -6.657036|   -6.514581|   -6.164917|   -8.477716|    2.492519|
|          76|  5.3703e+00|   -5.875340|   -5.926786|   -6.657317|   -6.514838|   -6.164979|   -8.478399|    2.492510|
|          77|  5.3721e+00|   -5.875520|   -5.926874|   -6.657594|   -6.515093|   -6.165043|   -8.479076|    2.492502|
|          78|  5.3740e+00|   -5.875704|   -5.926966|   -6.657869|   -6.515347|   -6.165111|   -8.479747|    2.492493|
|          79|  5.3755e+00|   -5.875893|   -5.927062|   -6.658140|   -6.515599|   -6.165183|   -8.480412|    2.492484|
|          80|  5.3769e+00|   -5.876085|   -5.927162|   -6.658410|   -6.515850|   -6.165257|   -8.481071|    2.492475|
|          81|  5.3780e+00|   -5.876282|   -5.927266|   -6.658677|   -6.516099|   -6.165334|   -8.481724|    2.492467|
|          82|  5.3804e+00|   -5.876483|   -5.927375|   -6.658941|   -6.516346|   -6.165414|   -8.482370|    2.492458|
|          83|  5.3825e+00|   -5.876688|   -5.927487|   -6.659202|   -6.516592|   -6.165498|   -8.483010|    2.492449|
|          84|  5.3852e+00|   -5.876897|   -5.927604|   -6.659460|   -6.516836|   -6.165583|   -8.483644|    2.492441|
|          85|  5.3873e+00|   -5.877109|   -5.927724|   -6.659715|   -6.517079|   -6.165672|   -8.484272|    2.492432|
|          86|  5.3905e+00|   -5.877326|   -5.927849|   -6.659968|   -6.517320|   -6.165763|   -8.484893|    2.492423|
|          87|  5.3924e+00|   -5.877546|   -5.927977|   -6.660217|   -6.517560|   -6.165857|   -8.485507|    2.492415|
|          88|  5.3939e+00|   -5.877769|   -5.928109|   -6.660462|   -6.517799|   -6.165953|   -8.486115|    2.492406|
|          89|  5.3954e+00|   -5.877996|   -5.928245|   -6.660705|   -6.518036|   -6.166051|   -8.486716|    2.492398|
|          90|  5.3958e+00|   -5.878227|   -5.928384|   -6.660945|   -6.518271|   -6.166152|   -8.487310|    2.492389|
|          91|  5.3969e+00|   -5.878461|   -5.928527|   -6.661181|   -6.518505|   -6.166255|   -8.487897|    2.492381|
|          92|  5.3976e+00|   -5.878698|   -5.928673|   -6.661414|   -6.518736|   -6.166359|   -8.488477|    2.492372|
|          93|  5.3984e+00|   -5.878938|   -5.928823|   -6.661644|   -6.518966|   -6.166466|   -8.489050|    2.492364|
|          94|  5.3991e+00|   -5.879182|   -5.928976|   -6.661871|   -6.519194|   -6.166575|   -8.489615|    2.492355|
|          95|  5.3999e+00|   -5.879428|   -5.929133|   -6.662094|   -6.519421|   -6.166686|   -8.490174|    2.492347|
|          96|  5.4007e+00|   -5.879678|   -5.929293|   -6.662314|   -6.519645|   -6.166799|   -8.490725|    2.492338|
|          97|  5.4016e+00|   -5.879931|   -5.929457|   -6.662530|   -6.519868|   -6.166914|   -8.491269|    2.492330|
|          98|  5.4031e+00|   -5.880186|   -5.929624|   -6.662744|   -6.520089|   -6.167030|   -8.491806|    2.492321|
|          99|  5.4041e+00|   -5.880445|   -5.929794|   -6.662954|   -6.520309|   -6.167149|   -8.492335|    2.492313|
|         100|  5.4052e+00|   -5.880707|   -5.929967|   -6.663161|   -6.520527|   -6.167269|   -8.492856|    2.492305|
|         101|  5.4058e+00|   -5.880971|   -5.930143|   -6.663364|   -6.520742|   -6.167391|   -8.493370|    2.492296|
|         102|  5.4065e+00|   -5.881238|   -5.930323|   -6.663565|   -6.520955|   -6.167515|   -8.493876|    2.492288|
|         103|  5.4075e+00|   -5.881507|   -5.930505|   -6.663761|   -6.521166|   -6.167640|   -8.494374|    2.492280|
|         104|  5.4088e+00|   -5.881779|   -5.930690|   -6.663953|   -6.521375|   -6.167766|   -8.494865|    2.492271|
|         105|  5.4098e+00|   -5.882053|   -5.930878|   -6.664142|   -6.521582|   -6.167894|   -8.495347|    2.492263|
|         106|  5.4122e+00|   -5.882330|   -5.931069|   -6.664327|   -6.521786|   -6.168024|   -8.495822|    2.492255|
|         107|  5.4133e+00|   -5.882609|   -5.931262|   -6.664508|   -6.521988|   -6.168154|   -8.496289|    2.492246|
|         108|  5.4147e+00|   -5.882890|   -5.931458|   -6.664684|   -6.522187|   -6.168286|   -8.496747|    2.492238|
|         109|  5.4166e+00|   -5.883173|   -5.931656|   -6.664857|   -6.522384|   -6.168418|   -8.497198|    2.492230|
|         110|  5.4175e+00|   -5.883458|   -5.931857|   -6.665027|   -6.522578|   -6.168553|   -8.497640|    2.492222|
|         111|  5.4190e+00|   -5.883746|   -5.932061|   -6.665192|   -6.522770|   -6.168688|   -8.498074|    2.492214|
|         112|  5.4210e+00|   -5.884035|   -5.932267|   -6.665354|   -6.522960|   -6.168824|   -8.498500|    2.492205|
|         113|  5.4227e+00|   -5.884327|   -5.932475|   -6.665512|   -6.523148|   -6.168962|   -8.498918|    2.492197|
|         114|  5.4235e+00|   -5.884621|   -5.932686|   -6.665667|   -6.523333|   -6.169101|   -8.499327|    2.492189|
|         115|  5.4248e+00|   -5.884918|   -5.932900|   -6.665817|   -6.523516|   -6.169242|   -8.499727|    2.492181|
|         116|  5.4255e+00|   -5.885216|   -5.933116|   -6.665964|   -6.523696|   -6.169383|   -8.500120|    2.492173|
|         117|  5.4259e+00|   -5.885516|   -5.933334|   -6.666107|   -6.523874|   -6.169526|   -8.500503|    2.492165|
|         118|  5.4268e+00|   -5.885819|   -5.933555|   -6.666246|   -6.524050|   -6.169670|   -8.500879|    2.492157|
|         119|  5.4276e+00|   -5.886123|   -5.933778|   -6.666382|   -6.524224|   -6.169815|   -8.501245|    2.492149|
|         120|  5.4286e+00|   -5.886430|   -5.934004|   -6.666514|   -6.524396|   -6.169962|   -8.501603|    2.492141|
|         121|  5.4291e+00|   -5.886740|   -5.934232|   -6.666642|   -6.524565|   -6.170110|   -8.501952|    2.492133|
|         122|  5.4300e+00|   -5.887051|   -5.934462|   -6.666766|   -6.524732|   -6.170260|   -8.502293|    2.492125|
|         123|  5.4309e+00|   -5.887364|   -5.934695|   -6.666887|   -6.524896|   -6.170410|   -8.502625|    2.492117|
|         124|  5.4314e+00|   -5.887679|   -5.934931|   -6.667005|   -6.525058|   -6.170562|   -8.502948|    2.492109|
|         125|  5.4326e+00|   -5.887997|   -5.935168|   -6.667118|   -6.525217|   -6.170716|   -8.503263|    2.492101|
|         126|  5.4336e+00|   -5.888317|   -5.935409|   -6.667228|   -6.525374|   -6.170870|   -8.503568|    2.492093|
|         127|  5.4340e+00|   -5.888638|   -5.935651|   -6.667335|   -6.525528|   -6.171026|   -8.503865|    2.492086|
|         128|  5.4345e+00|   -5.888962|   -5.935897|   -6.667437|   -6.525680|   -6.171183|   -8.504153|    2.492078|
|         129|  5.4353e+00|   -5.889288|   -5.936144|   -6.667537|   -6.525829|   -6.171342|   -8.504432|    2.492070|
|         130|  5.4356e+00|   -5.889616|   -5.936394|   -6.667633|   -6.525975|   -6.171502|   -8.504702|    2.492062|
|         131|  5.4366e+00|   -5.889946|   -5.936647|   -6.667724|   -6.526119|   -6.171664|   -8.504963|    2.492054|
|         132|  5.4372e+00|   -5.890278|   -5.936902|   -6.667813|   -6.526260|   -6.171826|   -8.505215|    2.492047|
|         133|  5.4383e+00|   -5.890612|   -5.937159|   -6.667897|   -6.526398|   -6.171990|   -8.505458|    2.492039|
|         134|  5.4390e+00|   -5.890948|   -5.937419|   -6.667978|   -6.526534|   -6.172155|   -8.505692|    2.492031|
|         135|  5.4391e+00|   -5.891285|   -5.937681|   -6.668056|   -6.526666|   -6.172322|   -8.505917|    2.492024|
|         136|  5.4391e+00|   -5.891625|   -5.937946|   -6.668131|   -6.526796|   -6.172490|   -8.506134|    2.492016|
|         137|  5.4395e+00|   -5.891967|   -5.938213|   -6.668201|   -6.526923|   -6.172659|   -8.506341|    2.492008|
|         138|  5.4399e+00|   -5.892310|   -5.938482|   -6.668268|   -6.527046|   -6.172829|   -8.506539|    2.492001|
|         139|  5.4402e+00|   -5.892656|   -5.938754|   -6.668332|   -6.527167|   -6.173001|   -8.506728|    2.491993|
|         140|  5.4409e+00|   -5.893003|   -5.939028|   -6.668392|   -6.527285|   -6.173174|   -8.506908|    2.491986|
|         141|  5.4422e+00|   -5.893352|   -5.939305|   -6.668449|   -6.527401|   -6.173348|   -8.507079|    2.491978|
|         142|  5.4424e+00|   -5.893703|   -5.939584|   -6.668501|   -6.527513|   -6.173524|   -8.507242|    2.491971|
|         143|  5.4426e+00|   -5.894056|   -5.939865|   -6.668551|   -6.527623|   -6.173701|   -8.507395|    2.491963|
|         144|  5.4429e+00|   -5.894410|   -5.940149|   -6.668597|   -6.527730|   -6.173879|   -8.507539|    2.491956|
|         145|  5.4432e+00|   -5.894766|   -5.940435|   -6.668639|   -6.527834|   -6.174058|   -8.507675|    2.491948|
|         146|  5.4435e+00|   -5.895124|   -5.940723|   -6.668678|   -6.527935|   -6.174239|   -8.507801|    2.491941|
|         147|  5.4435e+00|   -5.895484|   -5.941014|   -6.668713|   -6.528033|   -6.174421|   -8.507918|    2.491933|
|         148|  5.4442e+00|   -5.895846|   -5.941306|   -6.668745|   -6.528129|   -6.174605|   -8.508027|    2.491926|
|         149|  5.4447e+00|   -5.896209|   -5.941602|   -6.668773|   -6.528221|   -6.174789|   -8.508126|    2.491919|
|         150|  5.4448e+00|   -5.896573|   -5.941899|   -6.668798|   -6.528311|   -6.174975|   -8.508217|    2.491912|
+-----------------------------------------------------------------------+
|        File Writing Summary       |              Filename             |
+-----------------------------------------------------------------------+
|SU2 binary restart                 |restart_flow.dat                   |
|Paraview                           |flow.vtu                           |
|Paraview surface                   |surface_flow.vtu                   |
+-----------------------------------------------------------------------+
+--------------------------------------------------------------------------------------------------------------------+
|  Inner_Iter|   Time(sec)|    rms[Rho]|   rms[RhoU]|   rms[RhoV]|   rms[RhoW]|   rms[RhoE]|     rms[nu]|          CD|
+--------------------------------------------------------------------------------------------------------------------+
|         151|  5.5965e+00|   -5.896940|   -5.942199|   -6.668819|   -6.528397|   -6.175162|   -8.508299|    2.491904|
|         152|  5.5967e+00|   -5.897307|   -5.942500|   -6.668837|   -6.528481|   -6.175350|   -8.508372|    2.491897|
|         153|  5.5967e+00|   -5.897677|   -5.942804|   -6.668852|   -6.528562|   -6.175540|   -8.508436|    2.491890|
|         154|  5.5970e+00|   -5.898048|   -5.943110|   -6.668863|   -6.528640|   -6.175730|   -8.508491|    2.491883|
|         155|  5.5967e+00|   -5.898420|   -5.943419|   -6.668871|   -6.528715|   -6.175922|   -8.508537|    2.491875|
|         156|  5.5971e+00|   -5.898794|   -5.943729|   -6.668875|   -6.528788|   -6.176115|   -8.508575|    2.491868|
|         157|  5.5967e+00|   -5.899170|   -5.944041|   -6.668876|   -6.528857|   -6.176309|   -8.508604|    2.491861|
|         158|  5.5964e+00|   -5.899546|   -5.944355|   -6.668873|   -6.528924|   -6.176505|   -8.508624|    2.491854|
|         159|  5.5962e+00|   -5.899924|   -5.944671|   -6.668867|   -6.528988|   -6.176700|   -8.508635|    2.491847|
|         160|  5.5957e+00|   -5.900303|   -5.944989|   -6.668858|   -6.529049|   -6.176897|   -8.508638|    2.491840|
|         161|  5.5950e+00|   -5.900683|   -5.945308|   -6.668845|   -6.529107|   -6.177095|   -8.508632|    2.491833|
|         162|  5.5949e+00|   -5.901065|   -5.945630|   -6.668829|   -6.529162|   -6.177295|   -8.508617|    2.491826|
|         163|  5.5943e+00|   -5.901447|   -5.945953|   -6.668809|   -6.529215|   -6.177495|   -8.508594|    2.491819|
|         164|  5.5939e+00|   -5.901831|   -5.946279|   -6.668785|   -6.529264|   -6.177696|   -8.508562|    2.491812|
|         165|  5.5940e+00|   -5.902216|   -5.946606|   -6.668759|   -6.529311|   -6.177898|   -8.508522|    2.491805|
|         166|  5.5938e+00|   -5.902601|   -5.946934|   -6.668729|   -6.529355|   -6.178100|   -8.508474|    2.491799|
|         167|  5.5926e+00|   -5.902988|   -5.947265|   -6.668695|   -6.529396|   -6.178304|   -8.508417|    2.491792|
|         168|  5.5920e+00|   -5.903375|   -5.947597|   -6.668659|   -6.529434|   -6.178508|   -8.508352|    2.491785|
|         169|  5.5918e+00|   -5.903764|   -5.947930|   -6.668619|   -6.529469|   -6.178713|   -8.508278|    2.491778|
|         170|  5.5915e+00|   -5.904153|   -5.948265|   -6.668575|   -6.529501|   -6.178919|   -8.508196|    2.491772|
|         171|  5.5912e+00|   -5.904542|   -5.948601|   -6.668529|   -6.529530|   -6.179125|   -8.508106|    2.491765|
|         172|  5.5905e+00|   -5.904933|   -5.948939|   -6.668478|   -6.529557|   -6.179333|   -8.508008|    2.491758|
|         173|  5.5904e+00|   -5.905324|   -5.949279|   -6.668425|   -6.529580|   -6.179540|   -8.507902|    2.491752|
|         174|  5.5899e+00|   -5.905716|   -5.949619|   -6.668367|   -6.529600|   -6.179749|   -8.507787|    2.491745|
|         175|  5.5895e+00|   -5.906108|   -5.949962|   -6.668306|   -6.529618|   -6.179958|   -8.507665|    2.491738|
|         176|  5.5894e+00|   -5.906502|   -5.950305|   -6.668243|   -6.529634|   -6.180168|   -8.507535|    2.491732|
|         177|  5.5887e+00|   -5.906895|   -5.950650|   -6.668176|   -6.529648|   -6.180379|   -8.507396|    2.491725|
|         178|  5.5882e+00|   -5.907290|   -5.950996|   -6.668106|   -6.529658|   -6.180591|   -8.507250|    2.491719|
|         179|  5.5877e+00|   -5.907685|   -5.951344|   -6.668032|   -6.529666|   -6.180803|   -8.507097|    2.491713|
|         180|  5.5878e+00|   -5.908081|   -5.951693|   -6.667956|   -6.529671|   -6.181016|   -8.506935|    2.491706|
|         181|  5.5875e+00|   -5.908476|   -5.952043|   -6.667877|   -6.529674|   -6.181229|   -8.506766|    2.491700|
|         182|  5.5870e+00|   -5.908873|   -5.952394|   -6.667794|   -6.529674|   -6.181443|   -8.506589|    2.491694|
|         183|  5.5865e+00|   -5.909269|   -5.952746|   -6.667709|   -6.529671|   -6.181658|   -8.506405|    2.491687|
|         184|  5.5864e+00|   -5.909666|   -5.953100|   -6.667621|   -6.529665|   -6.181873|   -8.506213|    2.491681|
|         185|  5.5863e+00|   -5.910064|   -5.953454|   -6.667529|   -6.529657|   -6.182089|   -8.506014|    2.491675|
|         186|  5.5863e+00|   -5.910461|   -5.953810|   -6.667435|   -6.529645|   -6.182305|   -8.505807|    2.491669|
|         187|  5.5859e+00|   -5.910859|   -5.954167|   -6.667338|   -6.529631|   -6.182522|   -8.505593|    2.491662|
|         188|  5.5857e+00|   -5.911257|   -5.954525|   -6.667238|   -6.529615|   -6.182740|   -8.505372|    2.491656|
|         189|  5.5854e+00|   -5.911656|   -5.954884|   -6.667135|   -6.529596|   -6.182958|   -8.505144|    2.491650|
|         190|  5.5852e+00|   -5.912055|   -5.955245|   -6.667030|   -6.529574|   -6.183177|   -8.504909|    2.491644|
|         191|  5.5856e+00|   -5.912454|   -5.955606|   -6.666922|   -6.529549|   -6.183397|   -8.504667|    2.491638|
|         192|  5.5855e+00|   -5.912853|   -5.955968|   -6.666811|   -6.529522|   -6.183617|   -8.504419|    2.491632|
|         193|  5.5852e+00|   -5.913252|   -5.956332|   -6.666696|   -6.529493|   -6.183837|   -8.504163|    2.491626|
|         194|  5.5848e+00|   -5.913651|   -5.956696|   -6.666579|   -6.529461|   -6.184058|   -8.503901|    2.491620|
|         195|  5.5842e+00|   -5.914050|   -5.957061|   -6.666458|   -6.529426|   -6.184279|   -8.503632|    2.491614|
|         196|  5.5839e+00|   -5.914449|   -5.957427|   -6.666334|   -6.529388|   -6.184501|   -8.503356|    2.491609|
|         197|  5.5836e+00|   -5.914848|   -5.957793|   -6.666207|   -6.529348|   -6.184723|   -8.503074|    2.491603|
|         198|  5.5837e+00|   -5.915247|   -5.958161|   -6.666078|   -6.529306|   -6.184946|   -8.502786|    2.491597|
|         199|  5.5837e+00|   -5.915646|   -5.958530|   -6.665947|   -6.529262|   -6.185170|   -8.502491|    2.491591|
|         200|  5.5835e+00|   -5.916045|   -5.958899|   -6.665812|   -6.529216|   -6.185394|   -8.502190|    2.491586|
|         201|  5.5826e+00|   -5.916443|   -5.959270|   -6.665675|   -6.529167|   -6.185618|   -8.501883|    2.491580|
|         202|  5.5823e+00|   -5.916842|   -5.959641|   -6.665535|   -6.529117|   -6.185843|   -8.501569|    2.491574|
|         203|  5.5822e+00|   -5.917240|   -5.960013|   -6.665392|   -6.529063|   -6.186069|   -8.501250|    2.491569|
|         204|  5.5815e+00|   -5.917638|   -5.960386|   -6.665248|   -6.529009|   -6.186295|   -8.500925|    2.491563|
|         205|  5.5816e+00|   -5.918035|   -5.960760|   -6.665100|   -6.528951|   -6.186521|   -8.500593|    2.491558|
|         206|  5.5815e+00|   -5.918433|   -5.961134|   -6.664951|   -6.528892|   -6.186748|   -8.500256|    2.491552|
|         207|  5.5813e+00|   -5.918830|   -5.961509|   -6.664799|   -6.528830|   -6.186976|   -8.499914|    2.491547|
|         208|  5.5813e+00|   -5.919226|   -5.961885|   -6.664644|   -6.528766|   -6.187204|   -8.499566|    2.491541|
|         209|  5.5812e+00|   -5.919622|   -5.962262|   -6.664487|   -6.528700|   -6.187432|   -8.499212|    2.491536|
|         210|  5.5808e+00|   -5.920017|   -5.962639|   -6.664327|   -6.528631|   -6.187660|   -8.498853|    2.491531|
|         211|  5.5807e+00|   -5.920412|   -5.963016|   -6.664165|   -6.528560|   -6.187888|   -8.498488|    2.491526|
|         212|  5.5808e+00|   -5.920805|   -5.963394|   -6.664001|   -6.528487|   -6.188117|   -8.498118|    2.491520|
|         213|  5.5808e+00|   -5.921198|   -5.963772|   -6.663835|   -6.528411|   -6.188346|   -8.497743|    2.491515|
|         214|  5.5806e+00|   -5.921591|   -5.964151|   -6.663666|   -6.528333|   -6.188575|   -8.497363|    2.491510|
|         215|  5.5802e+00|   -5.921982|   -5.964530|   -6.663496|   -6.528253|   -6.188804|   -8.496978|    2.491505|
|         216|  5.5797e+00|   -5.922373|   -5.964909|   -6.663324|   -6.528170|   -6.189033|   -8.496588|    2.491500|
|         217|  5.5797e+00|   -5.922762|   -5.965289|   -6.663149|   -6.528086|   -6.189263|   -8.496193|    2.491495|
|         218|  5.5796e+00|   -5.923151|   -5.965669|   -6.662973|   -6.528000|   -6.189492|   -8.495793|    2.491490|
|         219|  5.5789e+00|   -5.923539|   -5.966049|   -6.662795|   -6.527912|   -6.189722|   -8.495388|    2.491485|
|         220|  5.5783e+00|   -5.923926|   -5.966430|   -6.662615|   -6.527822|   -6.189952|   -8.494979|    2.491480|
|         221|  5.5780e+00|   -5.924312|   -5.966811|   -6.662434|   -6.527730|   -6.190183|   -8.494566|    2.491475|
|         222|  5.5779e+00|   -5.924698|   -5.967192|   -6.662252|   -6.527637|   -6.190413|   -8.494148|    2.491470|
|         223|  5.5778e+00|   -5.925081|   -5.967572|   -6.662068|   -6.527542|   -6.190643|   -8.493726|    2.491465|
|         224|  5.5772e+00|   -5.925462|   -5.967951|   -6.661883|   -6.527444|   -6.190871|   -8.493299|    2.491461|
|         225|  5.5769e+00|   -5.925843|   -5.968330|   -6.661696|   -6.527345|   -6.191100|   -8.492868|    2.491456|
|         226|  5.5763e+00|   -5.926222|   -5.968710|   -6.661507|   -6.527244|   -6.191329|   -8.492434|    2.491451|
|         227|  5.5761e+00|   -5.926600|   -5.969089|   -6.661317|   -6.527141|   -6.191558|   -8.491995|    2.491447|
|         228|  5.5758e+00|   -5.926977|   -5.969468|   -6.661125|   -6.527037|   -6.191787|   -8.491552|    2.491442|
|         229|  5.5756e+00|   -5.927352|   -5.969848|   -6.660931|   -6.526932|   -6.192015|   -8.491106|    2.491437|
|         230|  5.5754e+00|   -5.927727|   -5.970227|   -6.660736|   -6.526825|   -6.192244|   -8.490656|    2.491433|
|         231|  5.5750e+00|   -5.928100|   -5.970606|   -6.660540|   -6.526718|   -6.192473|   -8.490202|    2.491429|
|         232|  5.5745e+00|   -5.928472|   -5.970985|   -6.660342|   -6.526609|   -6.192702|   -8.489745|    2.491424|
|         233|  5.5745e+00|   -5.928842|   -5.971363|   -6.660144|   -6.526499|   -6.192931|   -8.489284|    2.491420|
|         234|  5.5743e+00|   -5.929211|   -5.971742|   -6.659944|   -6.526388|   -6.193159|   -8.488819|    2.491415|
|         235|  5.5740e+00|   -5.929579|   -5.972120|   -6.659743|   -6.526276|   -6.193388|   -8.488352|    2.491411|
|         236|  5.5742e+00|   -5.929946|   -5.972498|   -6.659541|   -6.526163|   -6.193617|   -8.487881|    2.491407|
|         237|  5.5741e+00|   -5.930311|   -5.972876|   -6.659339|   -6.526049|   -6.193846|   -8.487407|    2.491403|
|         238|  5.5736e+00|   -5.930674|   -5.973253|   -6.659134|   -6.525934|   -6.194074|   -8.486930|    2.491399|
|         239|  5.5732e+00|   -5.931036|   -5.973630|   -6.658929|   -6.525819|   -6.194303|   -8.486450|    2.491394|
|         240|  5.5727e+00|   -5.931398|   -5.974007|   -6.658723|   -6.525702|   -6.194532|   -8.485968|    2.491390|
|         241|  5.5723e+00|   -5.931757|   -5.974384|   -6.658517|   -6.525586|   -6.194761|   -8.485482|    2.491386|
|         242|  5.5722e+00|   -5.932116|   -5.974760|   -6.658310|   -6.525468|   -6.194990|   -8.484994|    2.491382|
|         243|  5.5722e+00|   -5.932473|   -5.975136|   -6.658102|   -6.525350|   -6.195219|   -8.484503|    2.491378|
|         244|  5.5718e+00|   -5.932828|   -5.975512|   -6.657893|   -6.525232|   -6.195448|   -8.484010|    2.491375|
|         245|  5.5714e+00|   -5.933183|   -5.975888|   -6.657683|   -6.525113|   -6.195679|   -8.483514|    2.491371|
|         246|  5.5710e+00|   -5.933541|   -5.976268|   -6.657473|   -6.524993|   -6.195912|   -8.483016|    2.491367|
|         247|  5.5708e+00|   -5.933896|   -5.976648|   -6.657261|   -6.524871|   -6.196145|   -8.482515|    2.491363|
|         248|  5.5710e+00|   -5.934249|   -5.977026|   -6.657049|   -6.524747|   -6.196377|   -8.482012|    2.491359|
|         249|  5.5711e+00|   -5.934600|   -5.977403|   -6.656836|   -6.524623|   -6.196608|   -8.481507|    2.491356|
|         250|  5.5708e+00|   -5.934949|   -5.977780|   -6.656623|   -6.524498|   -6.196839|   -8.481001|    2.491352|
|         251|  5.5708e+00|   -5.935296|   -5.978155|   -6.656409|   -6.524372|   -6.197070|   -8.480492|    2.491349|
|         252|  5.5703e+00|   -5.935641|   -5.978529|   -6.656195|   -6.524246|   -6.197300|   -8.479981|    2.491345|
|         253|  5.5703e+00|   -5.935983|   -5.978903|   -6.655981|   -6.524118|   -6.197529|   -8.479468|    2.491342|
|         254|  5.5703e+00|   -5.936324|   -5.979275|   -6.655766|   -6.523990|   -6.197758|   -8.478954|    2.491338|
|         255|  5.5702e+00|   -5.936662|   -5.979647|   -6.655550|   -6.523861|   -6.197986|   -8.478438|    2.491335|
|         256|  5.5699e+00|   -5.936999|   -5.980017|   -6.655336|   -6.523731|   -6.198215|   -8.477921|    2.491332|
|         257|  5.5699e+00|   -5.937333|   -5.980386|   -6.655121|   -6.523601|   -6.198442|   -8.477402|    2.491328|
|         258|  5.5700e+00|   -5.937665|   -5.980754|   -6.654906|   -6.523470|   -6.198669|   -8.476881|    2.491325|
|         259|  5.5698e+00|   -5.937994|   -5.981120|   -6.654690|   -6.523338|   -6.198894|   -8.476360|    2.491322|
|         260|  5.5695e+00|   -5.938321|   -5.981486|   -6.654474|   -6.523206|   -6.199119|   -8.475837|    2.491319|
|         261|  5.5691e+00|   -5.938645|   -5.981850|   -6.654257|   -6.523072|   -6.199343|   -8.475313|    2.491316|
|         262|  5.5685e+00|   -5.938967|   -5.982212|   -6.654040|   -6.522939|   -6.199566|   -8.474787|    2.491313|
|         263|  5.5683e+00|   -5.939286|   -5.982574|   -6.653823|   -6.522805|   -6.199789|   -8.474261|    2.491310|
|         264|  5.5680e+00|   -5.939603|   -5.982934|   -6.653605|   -6.522670|   -6.200011|   -8.473734|    2.491307|
|         265|  5.5677e+00|   -5.939918|   -5.983293|   -6.653388|   -6.522535|   -6.200232|   -8.473206|    2.491304|
|         266|  5.5674e+00|   -5.940229|   -5.983650|   -6.653171|   -6.522400|   -6.200452|   -8.472677|    2.491301|
|         267|  5.5672e+00|   -5.940539|   -5.984006|   -6.652954|   -6.522265|   -6.200672|   -8.472147|    2.491298|
|         268|  5.5672e+00|   -5.940847|   -5.984362|   -6.652737|   -6.522131|   -6.200892|   -8.471617|    2.491295|
|         269|  5.5669e+00|   -5.941152|   -5.984716|   -6.652520|   -6.521996|   -6.201111|   -8.471086|    2.491293|
|         270|  5.5665e+00|   -5.941455|   -5.985069|   -6.652304|   -6.521862|   -6.201330|   -8.470554|    2.491290|
|         271|  5.5662e+00|   -5.941756|   -5.985421|   -6.652088|   -6.521728|   -6.201549|   -8.470022|    2.491288|
|         272|  5.5662e+00|   -5.942054|   -5.985771|   -6.651872|   -6.521595|   -6.201767|   -8.469490|    2.491285|
|         273|  5.5661e+00|   -5.942350|   -5.986120|   -6.651657|   -6.521461|   -6.201985|   -8.468958|    2.491283|
|         274|  5.5660e+00|   -5.942644|   -5.986469|   -6.651441|   -6.521327|   -6.202202|   -8.468425|    2.491280|
|         275|  5.5660e+00|   -5.942936|   -5.986816|   -6.651226|   -6.521193|   -6.202418|   -8.467892|    2.491278|
|         276|  5.5658e+00|   -5.943225|   -5.987162|   -6.651011|   -6.521060|   -6.202635|   -8.467359|    2.491275|
|         277|  5.5659e+00|   -5.943512|   -5.987508|   -6.650796|   -6.520928|   -6.202852|   -8.466825|    2.491273|
|         278|  5.5659e+00|   -5.943798|   -5.987852|   -6.650582|   -6.520796|   -6.203068|   -8.466292|    2.491271|
|         279|  5.5656e+00|   -5.944081|   -5.988195|   -6.650369|   -6.520666|   -6.203284|   -8.465759|    2.491269|
|         280|  5.5655e+00|   -5.944362|   -5.988538|   -6.650156|   -6.520535|   -6.203500|   -8.465226|    2.491267|
|         281|  5.5652e+00|   -5.944641|   -5.988879|   -6.649944|   -6.520405|   -6.203716|   -8.464694|    2.491265|
|         282|  5.5652e+00|   -5.944917|   -5.989220|   -6.649732|   -6.520275|   -6.203931|   -8.464162|    2.491263|
|         283|  5.5648e+00|   -5.945192|   -5.989559|   -6.649521|   -6.520145|   -6.204146|   -8.463630|    2.491261|
|         284|  5.5646e+00|   -5.945465|   -5.989898|   -6.649311|   -6.520017|   -6.204362|   -8.463098|    2.491259|
|         285|  5.5644e+00|   -5.945736|   -5.990236|   -6.649102|   -6.519890|   -6.204578|   -8.462567|    2.491257|
|         286|  5.5641e+00|   -5.946005|   -5.990573|   -6.648895|   -6.519764|   -6.204794|   -8.462036|    2.491255|
|         287|  5.5636e+00|   -5.946273|   -5.990910|   -6.648689|   -6.519639|   -6.205010|   -8.461506|    2.491253|
|         288|  5.5639e+00|   -5.946539|   -5.991246|   -6.648484|   -6.519514|   -6.205227|   -8.460977|    2.491252|
|         289|  5.5635e+00|   -5.946804|   -5.991581|   -6.648281|   -6.519390|   -6.205444|   -8.460449|    2.491250|
|         290|  5.5633e+00|   -5.947066|   -5.991916|   -6.648078|   -6.519266|   -6.205662|   -8.459921|    2.491249|
|         291|  5.5631e+00|   -5.947327|   -5.992250|   -6.647877|   -6.519143|   -6.205879|   -8.459394|    2.491247|
|         292|  5.5630e+00|   -5.947586|   -5.992584|   -6.647677|   -6.519021|   -6.206097|   -8.458868|    2.491246|
|         293|  5.5628e+00|   -5.947843|   -5.992917|   -6.647478|   -6.518899|   -6.206315|   -8.458343|    2.491244|
|         294|  5.5626e+00|   -5.948099|   -5.993249|   -6.647281|   -6.518779|   -6.206534|   -8.457819|    2.491243|
|         295|  5.5625e+00|   -5.948353|   -5.993581|   -6.647085|   -6.518659|   -6.206753|   -8.457296|    2.491242|
|         296|  5.5621e+00|   -5.948606|   -5.993912|   -6.646890|   -6.518540|   -6.206972|   -8.456774|    2.491240|
|         297|  5.5619e+00|   -5.948857|   -5.994243|   -6.646697|   -6.518422|   -6.207192|   -8.456254|    2.491239|
|         298|  5.5617e+00|   -5.949106|   -5.994573|   -6.646506|   -6.518304|   -6.207412|   -8.455734|    2.491238|
|         299|  5.5615e+00|   -5.949354|   -5.994902|   -6.646315|   -6.518188|   -6.207633|   -8.455216|    2.491237|
|         300|  5.5613e+00|   -5.949599|   -5.995231|   -6.646126|   -6.518072|   -6.207853|   -8.454700|    2.491236|
+-----------------------------------------------------------------------+
|        File Writing Summary       |              Filename             |
+-----------------------------------------------------------------------+
|SU2 binary restart                 |restart_flow.dat                   |
|Paraview                           |flow.vtu                           |
|Paraview surface                   |surface_flow.vtu                   |
+-----------------------------------------------------------------------+
+--------------------------------------------------------------------------------------------------------------------+
|  Inner_Iter|   Time(sec)|    rms[Rho]|   rms[RhoU]|   rms[RhoV]|   rms[RhoW]|   rms[RhoE]|     rms[nu]|          CD|
+--------------------------------------------------------------------------------------------------------------------+
|         301|  5.6369e+00|   -5.949843|   -5.995559|   -6.645938|   -6.517957|   -6.208074|   -8.454184|    2.491235|
|         302|  5.6372e+00|   -5.950085|   -5.995887|   -6.645752|   -6.517842|   -6.208296|   -8.453671|    2.491234|
|         303|  5.6371e+00|   -5.950326|   -5.996214|   -6.645567|   -6.517728|   -6.208518|   -8.453158|    2.491233|
|         304|  5.6367e+00|   -5.950565|   -5.996541|   -6.645384|   -6.517616|   -6.208740|   -8.452648|    2.491233|
|         305|  5.6363e+00|   -5.950802|   -5.996866|   -6.645202|   -6.517505|   -6.208963|   -8.452138|    2.491232|
|         306|  5.6358e+00|   -5.951038|   -5.997191|   -6.645022|   -6.517394|   -6.209185|   -8.451631|    2.491231|
|         307|  5.6355e+00|   -5.951272|   -5.997516|   -6.644844|   -6.517285|   -6.209409|   -8.451125|    2.491231|
|         308|  5.6351e+00|   -5.951504|   -5.997839|   -6.644667|   -6.517176|   -6.209632|   -8.450621|    2.491230|
|         309|  5.6347e+00|   -5.951734|   -5.998162|   -6.644492|   -6.517069|   -6.209856|   -8.450119|    2.491230|
|         310|  5.6343e+00|   -5.951962|   -5.998484|   -6.644319|   -6.516961|   -6.210080|   -8.449619|    2.491229|
|         311|  5.6337e+00|   -5.952188|   -5.998805|   -6.644148|   -6.516855|   -6.210304|   -8.449120|    2.491229|
|         312|  5.6335e+00|   -5.952413|   -5.999125|   -6.643978|   -6.516750|   -6.210528|   -8.448624|    2.491229|
|         313|  5.6335e+00|   -5.952635|   -5.999445|   -6.643810|   -6.516645|   -6.210752|   -8.448130|    2.491228|
|         314|  5.6334e+00|   -5.952855|   -5.999763|   -6.643644|   -6.516542|   -6.210977|   -8.447637|    2.491228|
|         315|  5.6328e+00|   -5.953074|   -6.000081|   -6.643479|   -6.516439|   -6.211201|   -8.447147|    2.491228|
|         316|  5.6323e+00|   -5.953291|   -6.000398|   -6.643317|   -6.516338|   -6.211426|   -8.446659|    2.491228|
|         317|  5.6320e+00|   -5.953506|   -6.000714|   -6.643157|   -6.516237|   -6.211651|   -8.446173|    2.491228|
|         318|  5.6319e+00|   -5.953718|   -6.001029|   -6.642999|   -6.516137|   -6.211876|   -8.445689|    2.491228|
|         319|  5.6316e+00|   -5.953929|   -6.001343|   -6.642844|   -6.516039|   -6.212101|   -8.445208|    2.491228|
|         320|  5.6314e+00|   -5.954138|   -6.001656|   -6.642690|   -6.515941|   -6.212327|   -8.444729|    2.491228|
|         321|  5.6311e+00|   -5.954345|   -6.001967|   -6.642538|   -6.515844|   -6.212551|   -8.444252|    2.491229|
|         322|  5.6307e+00|   -5.954549|   -6.002277|   -6.642389|   -6.515748|   -6.212776|   -8.443777|    2.491229|
|         323|  5.6305e+00|   -5.954751|   -6.002587|   -6.642242|   -6.515653|   -6.213001|   -8.443305|    2.491229|
|         324|  5.6300e+00|   -5.954952|   -6.002895|   -6.642097|   -6.515559|   -6.213225|   -8.442836|    2.491230|
|         325|  5.6296e+00|   -5.955150|   -6.003202|   -6.641954|   -6.515467|   -6.213450|   -8.442369|    2.491230|
|         326|  5.6293e+00|   -5.955347|   -6.003507|   -6.641814|   -6.515376|   -6.213675|   -8.441905|    2.491231|
|         327|  5.6289e+00|   -5.955541|   -6.003812|   -6.641677|   -6.515286|   -6.213900|   -8.441443|    2.491231|
|         328|  5.6286e+00|   -5.955734|   -6.004115|   -6.641542|   -6.515198|   -6.214125|   -8.440984|    2.491232|
|         329|  5.6284e+00|   -5.955924|   -6.004417|   -6.641409|   -6.515112|   -6.214349|   -8.440527|    2.491233|
|         330|  5.6280e+00|   -5.956112|   -6.004718|   -6.641278|   -6.515026|   -6.214574|   -8.440073|    2.491234|
|         331|  5.6277e+00|   -5.956298|   -6.005017|   -6.641149|   -6.514942|   -6.214798|   -8.439622|    2.491235|
|         332|  5.6274e+00|   -5.956482|   -6.005314|   -6.641022|   -6.514858|   -6.215022|   -8.439174|    2.491235|
|         333|  5.6272e+00|   -5.956663|   -6.005610|   -6.640898|   -6.514776|   -6.215245|   -8.438728|    2.491236|
|         334|  5.6271e+00|   -5.956843|   -6.005905|   -6.640776|   -6.514696|   -6.215469|   -8.438286|    2.491238|
|         335|  5.6268e+00|   -5.957020|   -6.006199|   -6.640657|   -6.514618|   -6.215692|   -8.437846|    2.491239|
|         336|  5.6265e+00|   -5.957196|   -6.006491|   -6.640541|   -6.514540|   -6.215916|   -8.437409|    2.491240|
|         337|  5.6261e+00|   -5.957369|   -6.006782|   -6.640427|   -6.514464|   -6.216139|   -8.436975|    2.491241|
|         338|  5.6260e+00|   -5.957541|   -6.007071|   -6.640316|   -6.514390|   -6.216362|   -8.436544|    2.491242|
|         339|  5.6258e+00|   -5.957710|   -6.007359|   -6.640207|   -6.514316|   -6.216585|   -8.436116|    2.491244|
|         340|  5.6253e+00|   -5.957878|   -6.007645|   -6.640101|   -6.514245|   -6.216808|   -8.435692|    2.491245|
|         341|  5.6248e+00|   -5.958043|   -6.007930|   -6.639998|   -6.514175|   -6.217030|   -8.435270|    2.491247|
|         342|  5.6244e+00|   -5.958207|   -6.008214|   -6.639897|   -6.514107|   -6.217253|   -8.434851|    2.491248|
|         343|  5.6239e+00|   -5.958368|   -6.008496|   -6.639799|   -6.514040|   -6.217475|   -8.434436|    2.491250|
|         344|  5.6236e+00|   -5.958528|   -6.008777|   -6.639704|   -6.513975|   -6.217698|   -8.434023|    2.491252|
|         345|  5.6234e+00|   -5.958686|   -6.009056|   -6.639611|   -6.513911|   -6.217920|   -8.433614|    2.491253|
|         346|  5.6231e+00|   -5.958842|   -6.009334|   -6.639521|   -6.513849|   -6.218142|   -8.433208|    2.491255|
|         347|  5.6227e+00|   -5.958995|   -6.009611|   -6.639434|   -6.513788|   -6.218364|   -8.432806|    2.491257|
|         348|  5.6225e+00|   -5.959147|   -6.009886|   -6.639349|   -6.513729|   -6.218585|   -8.432406|    2.491259|
|         349|  5.6222e+00|   -5.959297|   -6.010159|   -6.639267|   -6.513672|   -6.218807|   -8.432010|    2.491261|
|         350|  5.6219e+00|   -5.959445|   -6.010431|   -6.639187|   -6.513616|   -6.219028|   -8.431618|    2.491263|
|         351|  5.6215e+00|   -5.959590|   -6.010701|   -6.639110|   -6.513562|   -6.219249|   -8.431228|    2.491265|
|         352|  5.6213e+00|   -5.959734|   -6.010970|   -6.639035|   -6.513510|   -6.219470|   -8.430842|    2.491268|
|         353|  5.6210e+00|   -5.959877|   -6.011238|   -6.638963|   -6.513460|   -6.219691|   -8.430460|    2.491270|
|         354|  5.6207e+00|   -5.960017|   -6.011504|   -6.638894|   -6.513412|   -6.219912|   -8.430081|    2.491272|
|         355|  5.6204e+00|   -5.960156|   -6.011769|   -6.638827|   -6.513365|   -6.220133|   -8.429705|    2.491275|
|         356|  5.6203e+00|   -5.960293|   -6.012032|   -6.638762|   -6.513321|   -6.220353|   -8.429333|    2.491277|
|         357|  5.6201e+00|   -5.960428|   -6.012293|   -6.638700|   -6.513277|   -6.220573|   -8.428964|    2.491280|
|         358|  5.6198e+00|   -5.960561|   -6.012553|   -6.638641|   -6.513236|   -6.220793|   -8.428599|    2.491282|
|         359|  5.6194e+00|   -5.960692|   -6.012812|   -6.638584|   -6.513196|   -6.221013|   -8.428238|    2.491285|
|         360|  5.6191e+00|   -5.960822|   -6.013069|   -6.638529|   -6.513159|   -6.221233|   -8.427880|    2.491288|
|         361|  5.6187e+00|   -5.960950|   -6.013325|   -6.638478|   -6.513123|   -6.221453|   -8.427526|    2.491290|
|         362|  5.6185e+00|   -5.961077|   -6.013580|   -6.638429|   -6.513089|   -6.221673|   -8.427175|    2.491293|
|         363|  5.6183e+00|   -5.961202|   -6.013833|   -6.638382|   -6.513056|   -6.221893|   -8.426828|    2.491296|
|         364|  5.6180e+00|   -5.961326|   -6.014085|   -6.638338|   -6.513025|   -6.222113|   -8.426485|    2.491299|
|         365|  5.6176e+00|   -5.961447|   -6.014335|   -6.638297|   -6.512994|   -6.222332|   -8.426145|    2.491302|
|         366|  5.6171e+00|   -5.961566|   -6.014583|   -6.638259|   -6.512966|   -6.222551|   -8.425809|    2.491305|
|         367|  5.6167e+00|   -5.961684|   -6.014831|   -6.638224|   -6.512939|   -6.222770|   -8.425477|    2.491309|
|         368|  5.6165e+00|   -5.961801|   -6.015077|   -6.638192|   -6.512914|   -6.222989|   -8.425149|    2.491312|
|         369|  5.6163e+00|   -5.961916|   -6.015321|   -6.638162|   -6.512890|   -6.223208|   -8.424824|    2.491315|
|         370|  5.6159e+00|   -5.962029|   -6.015564|   -6.638136|   -6.512868|   -6.223426|   -8.424503|    2.491319|
|         371|  5.6155e+00|   -5.962140|   -6.015806|   -6.638112|   -6.512847|   -6.223644|   -8.424186|    2.491322|
|         372|  5.6148e+00|   -5.962250|   -6.016046|   -6.638092|   -6.512829|   -6.223863|   -8.423873|    2.491326|
|         373|  5.6146e+00|   -5.962359|   -6.016285|   -6.638074|   -6.512811|   -6.224081|   -8.423564|    2.491329|
|         374|  5.6142e+00|   -5.962466|   -6.016522|   -6.638059|   -6.512796|   -6.224299|   -8.423258|    2.491333|
|         375|  5.6138e+00|   -5.962572|   -6.016758|   -6.638047|   -6.512782|   -6.224517|   -8.422957|    2.491336|
|         376|  5.6137e+00|   -5.962676|   -6.016993|   -6.638039|   -6.512770|   -6.224735|   -8.422659|    2.491340|
|         377|  5.6135e+00|   -5.962779|   -6.017227|   -6.638034|   -6.512759|   -6.224953|   -8.422365|    2.491344|
|         378|  5.6134e+00|   -5.962879|   -6.017458|   -6.638031|   -6.512749|   -6.225170|   -8.422076|    2.491348|
|         379|  5.6135e+00|   -5.962979|   -6.017689|   -6.638031|   -6.512741|   -6.225387|   -8.421790|    2.491352|
|         380|  5.6132e+00|   -5.963076|   -6.017918|   -6.638034|   -6.512735|   -6.225604|   -8.421508|    2.491356|
|         381|  5.6132e+00|   -5.963172|   -6.018146|   -6.638040|   -6.512730|   -6.225821|   -8.421230|    2.491360|
|         382|  5.6131e+00|   -5.963267|   -6.018372|   -6.638049|   -6.512727|   -6.226038|   -8.420956|    2.491364|
|         383|  5.6129e+00|   -5.963360|   -6.018597|   -6.638061|   -6.512725|   -6.226254|   -8.420686|    2.491368|
|         384|  5.6129e+00|   -5.963451|   -6.018820|   -6.638076|   -6.512725|   -6.226470|   -8.420420|    2.491373|
|         385|  5.6128e+00|   -5.963541|   -6.019042|   -6.638094|   -6.512726|   -6.226686|   -8.420158|    2.491377|
|         386|  5.6127e+00|   -5.963630|   -6.019263|   -6.638114|   -6.512729|   -6.226902|   -8.419900|    2.491382|
|         387|  5.6124e+00|   -5.963717|   -6.019482|   -6.638137|   -6.512734|   -6.227117|   -8.419647|    2.491386|
|         388|  5.6121e+00|   -5.963802|   -6.019700|   -6.638162|   -6.512740|   -6.227333|   -8.419397|    2.491391|
|         389|  5.6119e+00|   -5.963887|   -6.019916|   -6.638191|   -6.512748|   -6.227548|   -8.419151|    2.491395|
|         390|  5.6117e+00|   -5.963970|   -6.020132|   -6.638222|   -6.512758|   -6.227764|   -8.418910|    2.491400|
|         391|  5.6116e+00|   -5.964052|   -6.020345|   -6.638256|   -6.512771|   -6.227979|   -8.418672|    2.491405|
|         392|  5.6114e+00|   -5.964132|   -6.020558|   -6.638293|   -6.512785|   -6.228195|   -8.418439|    2.491409|
|         393|  5.6114e+00|   -5.964211|   -6.020769|   -6.638333|   -6.512800|   -6.228410|   -8.418210|    2.491414|
|         394|  5.6112e+00|   -5.964289|   -6.020979|   -6.638377|   -6.512818|   -6.228625|   -8.417985|    2.491419|
|         395|  5.6112e+00|   -5.964365|   -6.021187|   -6.638424|   -6.512836|   -6.228840|   -8.417764|    2.491424|
|         396|  5.6111e+00|   -5.964441|   -6.021394|   -6.638473|   -6.512856|   -6.229055|   -8.417548|    2.491429|
|         397|  5.6111e+00|   -5.964514|   -6.021600|   -6.638526|   -6.512878|   -6.229270|   -8.417335|    2.491434|
|         398|  5.6111e+00|   -5.964587|   -6.021804|   -6.638582|   -6.512902|   -6.229484|   -8.417127|    2.491440|
|         399|  5.6111e+00|   -5.964658|   -6.022007|   -6.638642|   -6.512928|   -6.229699|   -8.416923|    2.491445|
|         400|  5.6110e+00|   -5.964728|   -6.022208|   -6.638704|   -6.512955|   -6.229914|   -8.416723|    2.491450|
|         401|  5.6106e+00|   -5.964797|   -6.022408|   -6.638770|   -6.512985|   -6.230128|   -8.416528|    2.491455|
|         402|  5.6103e+00|   -5.964865|   -6.022607|   -6.638839|   -6.513016|   -6.230343|   -8.416336|    2.491461|
|         403|  5.6101e+00|   -5.964932|   -6.022804|   -6.638911|   -6.513049|   -6.230557|   -8.416149|    2.491466|
|         404|  5.6101e+00|   -5.964998|   -6.023000|   -6.638986|   -6.513083|   -6.230772|   -8.415966|    2.491472|
|         405|  5.6099e+00|   -5.965062|   -6.023195|   -6.639064|   -6.513120|   -6.230986|   -8.415788|    2.491478|
|         406|  5.6096e+00|   -5.965126|   -6.023388|   -6.639145|   -6.513158|   -6.231201|   -8.415613|    2.491483|
|         407|  5.6093e+00|   -5.965188|   -6.023580|   -6.639230|   -6.513197|   -6.231415|   -8.415443|    2.491489|
|         408|  5.6092e+00|   -5.965249|   -6.023770|   -6.639318|   -6.513238|   -6.231629|   -8.415277|    2.491495|
|         409|  5.6091e+00|   -5.965308|   -6.023959|   -6.639408|   -6.513280|   -6.231842|   -8.415116|    2.491501|
|         410|  5.6092e+00|   -5.965367|   -6.024146|   -6.639503|   -6.513324|   -6.232056|   -8.414959|    2.491507|
|         411|  5.6090e+00|   -5.965424|   -6.024332|   -6.639601|   -6.513370|   -6.232269|   -8.414806|    2.491513|
|         412|  5.6089e+00|   -5.965480|   -6.024516|   -6.639701|   -6.513418|   -6.232482|   -8.414657|    2.491519|
|         413|  5.6088e+00|   -5.965535|   -6.024699|   -6.639806|   -6.513467|   -6.232695|   -8.414512|    2.491525|
|         414|  5.6086e+00|   -5.965589|   -6.024880|   -6.639913|   -6.513518|   -6.232907|   -8.414372|    2.491531|
|         415|  5.6084e+00|   -5.965642|   -6.025059|   -6.640023|   -6.513571|   -6.233119|   -8.414237|    2.491537|
|         416|  5.6080e+00|   -5.965693|   -6.025237|   -6.640137|   -6.513625|   -6.233331|   -8.414105|    2.491544|
|         417|  5.6076e+00|   -5.965743|   -6.025413|   -6.640255|   -6.513682|   -6.233543|   -8.413978|    2.491550|
|         418|  5.6072e+00|   -5.965793|   -6.025588|   -6.640376|   -6.513740|   -6.233754|   -8.413855|    2.491557|
|         419|  5.6069e+00|   -5.965841|   -6.025762|   -6.640500|   -6.513800|   -6.233965|   -8.413737|    2.491563|
|         420|  5.6076e+00|   -5.965888|   -6.025933|   -6.640628|   -6.513863|   -6.234176|   -8.413623|    2.491570|
|         421|  5.6079e+00|   -5.965935|   -6.026103|   -6.640759|   -6.513927|   -6.234387|   -8.413513|    2.491576|
|         422|  5.6079e+00|   -5.965980|   -6.026272|   -6.640894|   -6.513993|   -6.234598|   -8.413407|    2.491583|
|         423|  5.6078e+00|   -5.966025|   -6.026439|   -6.641032|   -6.514060|   -6.234809|   -8.413306|    2.491590|
|         424|  5.6078e+00|   -5.966068|   -6.026604|   -6.641174|   -6.514130|   -6.235019|   -8.413209|    2.491597|
|         425|  5.6074e+00|   -5.966110|   -6.026767|   -6.641318|   -6.514201|   -6.235228|   -8.413117|    2.491603|
|         426|  5.6071e+00|   -5.966152|   -6.026929|   -6.641466|   -6.514273|   -6.235438|   -8.413029|    2.491610|
|         427|  5.6071e+00|   -5.966192|   -6.027089|   -6.641618|   -6.514348|   -6.235647|   -8.412945|    2.491617|
|         428|  5.6068e+00|   -5.966231|   -6.027248|   -6.641772|   -6.514424|   -6.235855|   -8.412866|    2.491624|
|         429|  5.6066e+00|   -5.966269|   -6.027405|   -6.641929|   -6.514502|   -6.236063|   -8.412791|    2.491632|
|         430|  5.6064e+00|   -5.966307|   -6.027560|   -6.642090|   -6.514582|   -6.236271|   -8.412720|    2.491639|
|         431|  5.6064e+00|   -5.966343|   -6.027713|   -6.642254|   -6.514663|   -6.236478|   -8.412654|    2.491646|
|         432|  5.6062e+00|   -5.966378|   -6.027865|   -6.642421|   -6.514747|   -6.236685|   -8.412592|    2.491653|
|         433|  5.6060e+00|   -5.966413|   -6.028016|   -6.642591|   -6.514833|   -6.236892|   -8.412534|    2.491661|
|         434|  5.6058e+00|   -5.966447|   -6.028165|   -6.642765|   -6.514920|   -6.237099|   -8.412481|    2.491668|
|         435|  5.6060e+00|   -5.966481|   -6.028313|   -6.642942|   -6.515009|   -6.237305|   -8.412432|    2.491676|
|         436|  5.6061e+00|   -5.966514|   -6.028459|   -6.643122|   -6.515101|   -6.237512|   -8.412387|    2.491683|
|         437|  5.6058e+00|   -5.966546|   -6.028604|   -6.643305|   -6.515193|   -6.237718|   -8.412347|    2.491691|
|         438|  5.6057e+00|   -5.966577|   -6.028748|   -6.643492|   -6.515288|   -6.237924|   -8.412311|    2.491699|
|         439|  5.6054e+00|   -5.966607|   -6.028889|   -6.643682|   -6.515383|   -6.238129|   -8.412279|    2.491706|
|         440|  5.6054e+00|   -5.966636|   -6.029029|   -6.643874|   -6.515479|   -6.238333|   -8.412252|    2.491714|
|         441|  5.6052e+00|   -5.966664|   -6.029167|   -6.644070|   -6.515577|   -6.238537|   -8.412229|    2.491722|
|         442|  5.6054e+00|   -5.966691|   -6.029303|   -6.644268|   -6.515677|   -6.238739|   -8.412211|    2.491730|
|         443|  5.6052e+00|   -5.966716|   -6.029437|   -6.644468|   -6.515777|   -6.238941|   -8.412197|    2.491738|
|         444|  5.6050e+00|   -5.966740|   -6.029569|   -6.644672|   -6.515879|   -6.239142|   -8.412187|    2.491746|
|         445|  5.6048e+00|   -5.966764|   -6.029700|   -6.644878|   -6.515983|   -6.239342|   -8.412181|    2.491754|
|         446|  5.6047e+00|   -5.966787|   -6.029829|   -6.645087|   -6.516088|   -6.239542|   -8.412180|    2.491762|
|         447|  5.6047e+00|   -5.966808|   -6.029957|   -6.645299|   -6.516194|   -6.239742|   -8.412183|    2.491770|
|         448|  5.6046e+00|   -5.966829|   -6.030082|   -6.645514|   -6.516302|   -6.239940|   -8.412190|    2.491779|
|         449|  5.6045e+00|   -5.966848|   -6.030206|   -6.645732|   -6.516412|   -6.240137|   -8.412202|    2.491787|
|         450|  5.6044e+00|   -5.966867|   -6.030327|   -6.645953|   -6.516523|   -6.240334|   -8.412218|    2.491795|
+-----------------------------------------------------------------------+
|        File Writing Summary       |              Filename             |
+-----------------------------------------------------------------------+
|SU2 binary restart                 |restart_flow.dat                   |
|Paraview                           |flow.vtu                           |
|Paraview surface                   |surface_flow.vtu                   |
+-----------------------------------------------------------------------+
+--------------------------------------------------------------------------------------------------------------------+
|  Inner_Iter|   Time(sec)|    rms[Rho]|   rms[RhoU]|   rms[RhoV]|   rms[RhoW]|   rms[RhoE]|     rms[nu]|          CD|
+--------------------------------------------------------------------------------------------------------------------+
|         451|  5.6553e+00|   -5.966884|   -6.030447|   -6.646177|   -6.516635|   -6.240530|   -8.412238|    2.491804|
|         452|  5.6563e+00|   -5.966900|   -6.030565|   -6.646403|   -6.516748|   -6.240724|   -8.412262|    2.491812|
|         453|  5.6575e+00|   -5.966915|   -6.030681|   -6.646632|   -6.516862|   -6.240918|   -8.412291|    2.491821|
|         454|  5.6583e+00|   -5.966928|   -6.030795|   -6.646863|   -6.516977|   -6.241111|   -8.412324|    2.491830|
|         455|  5.6590e+00|   -5.966941|   -6.030907|   -6.647098|   -6.517094|   -6.241302|   -8.412361|    2.491838|
|         456|  5.6597e+00|   -5.966952|   -6.031018|   -6.647335|   -6.517213|   -6.241493|   -8.412402|    2.491847|
|         457|  5.6596e+00|   -5.966963|   -6.031126|   -6.647575|   -6.517334|   -6.241683|   -8.412448|    2.491856|
|         458|  5.6595e+00|   -5.966973|   -6.031233|   -6.647818|   -6.517456|   -6.241873|   -8.412498|    2.491865|
|         459|  5.6593e+00|   -5.966982|   -6.031338|   -6.648064|   -6.517580|   -6.242062|   -8.412552|    2.491874|
|         460|  5.6590e+00|   -5.966990|   -6.031441|   -6.648313|   -6.517705|   -6.242249|   -8.412610|    2.491883|
|         461|  5.6588e+00|   -5.966998|   -6.031542|   -6.648564|   -6.517832|   -6.242436|   -8.412673|    2.491892|
|         462|  5.6588e+00|   -5.967004|   -6.031641|   -6.648818|   -6.517961|   -6.242622|   -8.412739|    2.491901|
|         463|  5.6585e+00|   -5.967009|   -6.031739|   -6.649074|   -6.518091|   -6.242807|   -8.412810|    2.491910|
|         464|  5.6583e+00|   -5.967014|   -6.031835|   -6.649333|   -6.518223|   -6.242991|   -8.412885|    2.491919|
|         465|  5.6581e+00|   -5.967018|   -6.031929|   -6.649595|   -6.518356|   -6.243175|   -8.412964|    2.491928|
|         466|  5.6579e+00|   -5.967021|   -6.032021|   -6.649860|   -6.518492|   -6.243358|   -8.413048|    2.491938|
|         467|  5.6578e+00|   -5.967024|   -6.032111|   -6.650128|   -6.518628|   -6.243540|   -8.413135|    2.491947|
|         468|  5.6576e+00|   -5.967026|   -6.032200|   -6.650398|   -6.518766|   -6.243721|   -8.413227|    2.491956|
|         469|  5.6574e+00|   -5.967027|   -6.032286|   -6.650671|   -6.518906|   -6.243901|   -8.413322|    2.491966|
|         470|  5.6571e+00|   -5.967027|   -6.032371|   -6.650947|   -6.519046|   -6.244080|   -8.413422|    2.491976|
|         471|  5.6571e+00|   -5.967026|   -6.032455|   -6.651224|   -6.519189|   -6.244258|   -8.413526|    2.491985|
|         472|  5.6572e+00|   -5.967025|   -6.032536|   -6.651505|   -6.519333|   -6.244436|   -8.413634|    2.491995|
|         473|  5.6570e+00|   -5.967023|   -6.032616|   -6.651788|   -6.519478|   -6.244612|   -8.413746|    2.492004|
|         474|  5.6568e+00|   -5.967020|   -6.032694|   -6.652074|   -6.519625|   -6.244788|   -8.413862|    2.492014|
|         475|  5.6567e+00|   -5.967017|   -6.032770|   -6.652363|   -6.519774|   -6.244962|   -8.413982|    2.492024|
|         476|  5.6567e+00|   -5.967013|   -6.032844|   -6.652655|   -6.519924|   -6.245136|   -8.414106|    2.492034|
|         477|  5.6567e+00|   -5.967008|   -6.032916|   -6.652949|   -6.520075|   -6.245309|   -8.414234|    2.492044|
|         478|  5.6565e+00|   -5.967003|   -6.032987|   -6.653245|   -6.520229|   -6.245481|   -8.414366|    2.492054|
|         479|  5.6563e+00|   -5.966997|   -6.033056|   -6.653544|   -6.520383|   -6.245652|   -8.414502|    2.492064|
|         480|  5.6560e+00|   -5.966991|   -6.033123|   -6.653845|   -6.520540|   -6.245822|   -8.414642|    2.492074|
|         481|  5.6560e+00|   -5.966984|   -6.033189|   -6.654149|   -6.520698|   -6.245991|   -8.414786|    2.492084|
|         482|  5.6558e+00|   -5.966976|   -6.033252|   -6.654455|   -6.520857|   -6.246159|   -8.414934|    2.492094|
|         483|  5.6555e+00|   -5.966968|   -6.033313|   -6.654762|   -6.521016|   -6.246326|   -8.415086|    2.492105|
|         484|  5.6553e+00|   -5.966958|   -6.033373|   -6.655072|   -6.521177|   -6.246491|   -8.415242|    2.492115|
|         485|  5.6550e+00|   -5.966948|   -6.033430|   -6.655384|   -6.521339|   -6.246655|   -8.415402|    2.492125|
|         486|  5.6549e+00|   -5.966936|   -6.033486|   -6.655699|   -6.521501|   -6.246818|   -8.415565|    2.492136|
|         487|  5.6545e+00|   -5.966925|   -6.033540|   -6.656015|   -6.521665|   -6.246980|   -8.415732|    2.492146|
|         488|  5.6543e+00|   -5.966912|   -6.033591|   -6.656334|   -6.521829|   -6.247141|   -8.415904|    2.492157|
|         489|  5.6540e+00|   -5.966898|   -6.033641|   -6.656654|   -6.521995|   -6.247300|   -8.416079|    2.492167|
|         490|  5.6537e+00|   -5.966884|   -6.033690|   -6.656977|   -6.522161|   -6.247458|   -8.416257|    2.492178|
|         491|  5.6534e+00|   -5.966869|   -6.033736|   -6.657302|   -6.522329|   -6.247615|   -8.416440|    2.492188|
|         492|  5.6532e+00|   -5.966853|   -6.033780|   -6.657629|   -6.522496|   -6.247770|   -8.416626|    2.492199|
|         493|  5.6531e+00|   -5.966836|   -6.033822|   -6.657957|   -6.522666|   -6.247924|   -8.416816|    2.492210|
|         494|  5.6529e+00|   -5.966819|   -6.033862|   -6.658288|   -6.522836|   -6.248077|   -8.417010|    2.492221|
|         495|  5.6527e+00|   -5.966800|   -6.033900|   -6.658620|   -6.523007|   -6.248228|   -8.417207|    2.492231|
|         496|  5.6528e+00|   -5.966781|   -6.033936|   -6.658955|   -6.523179|   -6.248378|   -8.417408|    2.492242|
|         497|  5.6527e+00|   -5.966760|   -6.033969|   -6.659291|   -6.523352|   -6.248526|   -8.417613|    2.492253|
|         498|  5.6525e+00|   -5.966738|   -6.034001|   -6.659629|   -6.523525|   -6.248672|   -8.417821|    2.492264|
|         499|  5.6522e+00|   -5.966716|   -6.034030|   -6.659969|   -6.523698|   -6.248817|   -8.418033|    2.492275|
|         500|  5.6520e+00|   -5.966692|   -6.034057|   -6.660310|   -6.523873|   -6.248960|   -8.418249|    2.492286|
|         501|  5.6518e+00|   -5.966667|   -6.034082|   -6.660654|   -6.524049|   -6.249102|   -8.418468|    2.492298|
|         502|  5.6516e+00|   -5.966642|   -6.034105|   -6.661000|   -6.524225|   -6.249242|   -8.418690|    2.492309|
|         503|  5.6515e+00|   -5.966616|   -6.034126|   -6.661347|   -6.524403|   -6.249381|   -8.418917|    2.492320|
|         504|  5.6511e+00|   -5.966589|   -6.034145|   -6.661696|   -6.524580|   -6.249518|   -8.419146|    2.492331|
|         505|  5.6508e+00|   -5.966560|   -6.034161|   -6.662047|   -6.524759|   -6.249653|   -8.419379|    2.492342|
|         506|  5.6504e+00|   -5.966531|   -6.034176|   -6.662399|   -6.524939|   -6.249787|   -8.419616|    2.492354|
|         507|  5.6502e+00|   -5.966500|   -6.034187|   -6.662753|   -6.525119|   -6.249918|   -8.419855|    2.492365|
|         508|  5.6502e+00|   -5.966469|   -6.034197|   -6.663109|   -6.525300|   -6.250048|   -8.420099|    2.492377|
|         509|  5.6499e+00|   -5.966436|   -6.034205|   -6.663466|   -6.525482|   -6.250177|   -8.420345|    2.492388|
|         510|  5.6496e+00|   -5.966403|   -6.034210|   -6.663825|   -6.525664|   -6.250304|   -8.420595|    2.492400|
|         511|  5.6493e+00|   -5.966370|   -6.034214|   -6.664185|   -6.525847|   -6.250430|   -8.420848|    2.492411|
|         512|  5.6491e+00|   -5.966335|   -6.034215|   -6.664547|   -6.526031|   -6.250554|   -8.421105|    2.492423|
|         513|  5.6488e+00|   -5.966298|   -6.034214|   -6.664910|   -6.526215|   -6.250675|   -8.421364|    2.492435|
|         514|  5.6485e+00|   -5.966260|   -6.034210|   -6.665275|   -6.526399|   -6.250795|   -8.421627|    2.492446|
|         515|  5.6481e+00|   -5.966222|   -6.034204|   -6.665640|   -6.526585|   -6.250913|   -8.421893|    2.492458|
|         516|  5.6478e+00|   -5.966182|   -6.034196|   -6.666007|   -6.526770|   -6.251029|   -8.422162|    2.492470|
|         517|  5.6476e+00|   -5.966142|   -6.034186|   -6.666376|   -6.526957|   -6.251143|   -8.422434|    2.492482|
|         518|  5.6474e+00|   -5.966100|   -6.034173|   -6.666745|   -6.527144|   -6.251255|   -8.422710|    2.492494|
|         519|  5.6472e+00|   -5.966057|   -6.034158|   -6.667116|   -6.527331|   -6.251366|   -8.422988|    2.492505|
|         520|  5.6469e+00|   -5.966013|   -6.034140|   -6.667487|   -6.527519|   -6.251475|   -8.423270|    2.492517|
|         521|  5.6466e+00|   -5.965969|   -6.034121|   -6.667860|   -6.527707|   -6.251581|   -8.423554|    2.492529|
|         522|  5.6463e+00|   -5.965923|   -6.034098|   -6.668234|   -6.527896|   -6.251686|   -8.423841|    2.492541|
|         523|  5.6461e+00|   -5.965875|   -6.034074|   -6.668610|   -6.528084|   -6.251789|   -8.424132|    2.492554|
|         524|  5.6458e+00|   -5.965827|   -6.034047|   -6.668986|   -6.528273|   -6.251889|   -8.424425|    2.492566|
|         525|  5.6455e+00|   -5.965777|   -6.034017|   -6.669363|   -6.528463|   -6.251988|   -8.424721|    2.492578|
|         526|  5.6455e+00|   -5.965727|   -6.033986|   -6.669741|   -6.528653|   -6.252084|   -8.425020|    2.492590|
|         527|  5.6454e+00|   -5.965676|   -6.033952|   -6.670121|   -6.528843|   -6.252179|   -8.425321|    2.492602|
|         528|  5.6453e+00|   -5.965623|   -6.033915|   -6.670501|   -6.529033|   -6.252272|   -8.425625|    2.492615|
|         529|  5.6452e+00|   -5.965569|   -6.033877|   -6.670882|   -6.529224|   -6.252362|   -8.425932|    2.492627|
|         530|  5.6450e+00|   -5.965514|   -6.033836|   -6.671264|   -6.529415|   -6.252451|   -8.426242|    2.492639|
|         531|  5.6448e+00|   -5.965458|   -6.033792|   -6.671647|   -6.529606|   -6.252537|   -8.426555|    2.492652|
|         532|  5.6447e+00|   -5.965400|   -6.033746|   -6.672031|   -6.529797|   -6.252621|   -8.426869|    2.492664|
|         533|  5.6443e+00|   -5.965341|   -6.033697|   -6.672415|   -6.529987|   -6.252703|   -8.427187|    2.492677|
|         534|  5.6440e+00|   -5.965281|   -6.033646|   -6.672801|   -6.530178|   -6.252782|   -8.427507|    2.492689|
|         535|  5.6437e+00|   -5.965220|   -6.033593|   -6.673187|   -6.530369|   -6.252859|   -8.427829|    2.492702|
|         536|  5.6436e+00|   -5.965157|   -6.033537|   -6.673574|   -6.530560|   -6.252935|   -8.428154|    2.492714|
|         537|  5.6434e+00|   -5.965094|   -6.033478|   -6.673962|   -6.530752|   -6.253008|   -8.428482|    2.492727|
|         538|  5.6430e+00|   -5.965029|   -6.033418|   -6.674351|   -6.530944|   -6.253079|   -8.428811|    2.492739|
[...]
|        6466|  5.6731e+00|   -6.316846|   -6.394097|   -6.849203|   -6.965253|   -6.585116|   -8.815671|    2.493288|
|        6467|  5.6731e+00|   -6.316765|   -6.394182|   -6.848828|   -6.964961|   -6.585118|   -8.815822|    2.493278|
|        6468|  5.6731e+00|   -6.316679|   -6.394260|   -6.848454|   -6.964669|   -6.585116|   -8.815972|    2.493268|
|        6469|  5.6731e+00|   -6.316589|   -6.394333|   -6.848078|   -6.964376|   -6.585110|   -8.816123|    2.493257|
|        6470|  5.6731e+00|   -6.316494|   -6.394400|   -6.847702|   -6.964084|   -6.585101|   -8.816275|    2.493247|
|        6471|  5.6731e+00|   -6.316395|   -6.394461|   -6.847325|   -6.963792|   -6.585088|   -8.816427|    2.493237|
|        6472|  5.6731e+00|   -6.316290|   -6.394516|   -6.846948|   -6.963499|   -6.585072|   -8.816579|    2.493227|
|        6473|  5.6731e+00|   -6.316181|   -6.394565|   -6.846570|   -6.963206|   -6.585051|   -8.816732|    2.493216|
|        6474|  5.6731e+00|   -6.316067|   -6.394608|   -6.846191|   -6.962913|   -6.585027|   -8.816885|    2.493206|
|        6475|  5.6731e+00|   -6.315947|   -6.394644|   -6.845811|   -6.962620|   -6.584998|   -8.817039|    2.493196|
|        6476|  5.6731e+00|   -6.315824|   -6.394675|   -6.845430|   -6.962327|   -6.584966|   -8.817193|    2.493185|
|        6477|  5.6731e+00|   -6.315695|   -6.394699|   -6.845048|   -6.962034|   -6.584931|   -8.817347|    2.493175|
|        6478|  5.6731e+00|   -6.315562|   -6.394717|   -6.844666|   -6.961741|   -6.584891|   -8.817502|    2.493165|
|        6479|  5.6731e+00|   -6.315424|   -6.394729|   -6.844282|   -6.961448|   -6.584847|   -8.817657|    2.493154|
|        6480|  5.6731e+00|   -6.315281|   -6.394735|   -6.843898|   -6.961155|   -6.584800|   -8.817812|    2.493144|
|        6481|  5.6731e+00|   -6.315133|   -6.394735|   -6.843514|   -6.960862|   -6.584749|   -8.817967|    2.493134|
|        6482|  5.6731e+00|   -6.314981|   -6.394728|   -6.843130|   -6.960570|   -6.584694|   -8.818123|    2.493123|
|        6483|  5.6731e+00|   -6.314824|   -6.394716|   -6.842745|   -6.960277|   -6.584636|   -8.818280|    2.493113|
|        6484|  5.6731e+00|   -6.314662|   -6.394697|   -6.842359|   -6.959985|   -6.584573|   -8.818436|    2.493102|
|        6485|  5.6731e+00|   -6.314496|   -6.394672|   -6.841972|   -6.959692|   -6.584506|   -8.818593|    2.493092|
|        6486|  5.6731e+00|   -6.314327|   -6.394642|   -6.841587|   -6.959401|   -6.584438|   -8.818750|    2.493081|
|        6487|  5.6731e+00|   -6.314153|   -6.394605|   -6.841202|   -6.959111|   -6.584365|   -8.818907|    2.493071|
|        6488|  5.6731e+00|   -6.313973|   -6.394562|   -6.840815|   -6.958821|   -6.584288|   -8.819065|    2.493061|
|        6489|  5.6731e+00|   -6.313789|   -6.394513|   -6.840427|   -6.958531|   -6.584207|   -8.819223|    2.493050|
|        6490|  5.6731e+00|   -6.313600|   -6.394457|   -6.840039|   -6.958241|   -6.584122|   -8.819381|    2.493040|
|        6491|  5.6731e+00|   -6.313406|   -6.394395|   -6.839651|   -6.957952|   -6.584032|   -8.819539|    2.493029|
|        6492|  5.6731e+00|   -6.313209|   -6.394327|   -6.839262|   -6.957664|   -6.583940|   -8.819698|    2.493019|
|        6493|  5.6731e+00|   -6.313006|   -6.394253|   -6.838872|   -6.957377|   -6.583844|   -8.819856|    2.493008|
|        6494|  5.6730e+00|   -6.312799|   -6.394172|   -6.838482|   -6.957090|   -6.583743|   -8.820015|    2.492998|
|        6495|  5.6730e+00|   -6.312587|   -6.394084|   -6.838092|   -6.956803|   -6.583639|   -8.820174|    2.492987|
|        6496|  5.6730e+00|   -6.312370|   -6.393991|   -6.837702|   -6.956517|   -6.583530|   -8.820334|    2.492977|
|        6497|  5.6730e+00|   -6.312149|   -6.393891|   -6.837311|   -6.956231|   -6.583418|   -8.820493|    2.492966|
|        6498|  5.6730e+00|   -6.311923|   -6.393785|   -6.836921|   -6.955945|   -6.583301|   -8.820653|    2.492956|
|        6499|  5.6730e+00|   -6.311693|   -6.393672|   -6.836531|   -6.955660|   -6.583181|   -8.820813|    2.492945|
|        6500|  5.6730e+00|   -6.311458|   -6.393553|   -6.836141|   -6.955376|   -6.583057|   -8.820973|    2.492935|
|        6501|  5.6730e+00|   -6.311219|   -6.393428|   -6.835751|   -6.955092|   -6.582929|   -8.821133|    2.492924|
|        6502|  5.6730e+00|   -6.310975|   -6.393297|   -6.835362|   -6.954809|   -6.582797|   -8.821293|    2.492913|
|        6503|  5.6730e+00|   -6.310729|   -6.393160|   -6.834975|   -6.954528|   -6.582664|   -8.821453|    2.492903|
|        6504|  5.6730e+00|   -6.310478|   -6.393017|   -6.834587|   -6.954247|   -6.582526|   -8.821614|    2.492892|
|        6505|  5.6730e+00|   -6.310223|   -6.392868|   -6.834200|   -6.953967|   -6.582385|   -8.821774|    2.492882|
|        6506|  5.6730e+00|   -6.309964|   -6.392713|   -6.833813|   -6.953688|   -6.582240|   -8.821935|    2.492871|
|        6507|  5.6730e+00|   -6.309701|   -6.392552|   -6.833426|   -6.953410|   -6.582091|   -8.822096|    2.492861|
|        6508|  5.6730e+00|   -6.309433|   -6.392385|   -6.833039|   -6.953133|   -6.581938|   -8.822257|    2.492850|
|        6509|  5.6730e+00|   -6.309161|   -6.392211|   -6.832651|   -6.952856|   -6.581782|   -8.822418|    2.492839|
|        6510|  5.6730e+00|   -6.308884|   -6.392032|   -6.832264|   -6.952580|   -6.581621|   -8.822578|    2.492829|
|        6511|  5.6730e+00|   -6.308604|   -6.391847|   -6.831877|   -6.952306|   -6.581457|   -8.822739|    2.492818|
|        6512|  5.6730e+00|   -6.308320|   -6.391656|   -6.831491|   -6.952032|   -6.581291|   -8.822901|    2.492808|
|        6513|  5.6729e+00|   -6.308032|   -6.391460|   -6.831105|   -6.951759|   -6.581120|   -8.823062|    2.492797|
|        6514|  5.6729e+00|   -6.307740|   -6.391257|   -6.830719|   -6.951486|   -6.580946|   -8.823223|    2.492786|
|        6515|  5.6729e+00|   -6.307443|   -6.391049|   -6.830333|   -6.951215|   -6.580768|   -8.823384|    2.492776|
|        6516|  5.6729e+00|   -6.307143|   -6.390834|   -6.829948|   -6.950945|   -6.580586|   -8.823545|    2.492765|
|        6517|  5.6729e+00|   -6.306838|   -6.390614|   -6.829563|   -6.950676|   -6.580401|   -8.823706|    2.492755|
|        6518|  5.6729e+00|   -6.306530|   -6.390388|   -6.829178|   -6.950409|   -6.580212|   -8.823867|    2.492744|
|        6519|  5.6728e+00|   -6.306220|   -6.390157|   -6.828796|   -6.950143|   -6.580021|   -8.824029|    2.492733|
|        6520|  5.6728e+00|   -6.305905|   -6.389920|   -6.828414|   -6.949878|   -6.579827|   -8.824190|    2.492723|
|        6521|  5.6728e+00|   -6.305589|   -6.389678|   -6.828035|   -6.949614|   -6.579631|   -8.824351|    2.492712|
|        6522|  5.6728e+00|   -6.305269|   -6.389431|   -6.827656|   -6.949352|   -6.579431|   -8.824512|    2.492701|
|        6523|  5.6728e+00|   -6.304944|   -6.389178|   -6.827277|   -6.949090|   -6.579228|   -8.824673|    2.492691|
|        6524|  5.6727e+00|   -6.304617|   -6.388919|   -6.826900|   -6.948829|   -6.579022|   -8.824834|    2.492680|
|        6525|  5.6727e+00|   -6.304286|   -6.388655|   -6.826525|   -6.948569|   -6.578812|   -8.824995|    2.492670|
|        6526|  5.6727e+00|   -6.303952|   -6.388385|   -6.826149|   -6.948310|   -6.578599|   -8.825156|    2.492659|
|        6527|  5.6727e+00|   -6.303614|   -6.388110|   -6.825774|   -6.948053|   -6.578383|   -8.825316|    2.492648|
|        6528|  5.6727e+00|   -6.303272|   -6.387829|   -6.825400|   -6.947797|   -6.578164|   -8.825477|    2.492638|
|        6529|  5.6726e+00|   -6.302929|   -6.387544|   -6.825027|   -6.947543|   -6.577942|   -8.825638|    2.492627|
|        6530|  5.6726e+00|   -6.302582|   -6.387253|   -6.824655|   -6.947290|   -6.577717|   -8.825798|    2.492616|
|        6531|  5.6726e+00|   -6.302232|   -6.386957|   -6.824283|   -6.947038|   -6.577489|   -8.825959|    2.492606|
|        6532|  5.6726e+00|   -6.301878|   -6.386656|   -6.823912|   -6.946788|   -6.577258|   -8.826119|    2.492595|
|        6533|  5.6726e+00|   -6.301521|   -6.386349|   -6.823542|   -6.946540|   -6.577024|   -8.826279|    2.492585|
|        6534|  5.6726e+00|   -6.301162|   -6.386037|   -6.823174|   -6.946293|   -6.576787|   -8.826439|    2.492574|
|        6535|  5.6726e+00|   -6.300799|   -6.385721|   -6.822806|   -6.946047|   -6.576547|   -8.826599|    2.492563|
|        6536|  5.6725e+00|   -6.300434|   -6.385399|   -6.822439|   -6.945803|   -6.576304|   -8.826759|    2.492553|
|        6537|  5.6725e+00|   -6.300064|   -6.385071|   -6.822073|   -6.945560|   -6.576058|   -8.826919|    2.492542|
|        6538|  5.6725e+00|   -6.299692|   -6.384739|   -6.821707|   -6.945319|   -6.575808|   -8.827078|    2.492531|
|        6539|  5.6725e+00|   -6.299317|   -6.384402|   -6.821342|   -6.945079|   -6.575556|   -8.827237|    2.492521|
|        6540|  5.6725e+00|   -6.298938|   -6.384059|   -6.820978|   -6.944840|   -6.575300|   -8.827397|    2.492510|
|        6541|  5.6724e+00|   -6.298557|   -6.383712|   -6.820615|   -6.944603|   -6.575041|   -8.827556|    2.492500|
|        6542|  5.6724e+00|   -6.298172|   -6.383360|   -6.820253|   -6.944368|   -6.574780|   -8.827714|    2.492489|
|        6543|  5.6724e+00|   -6.297785|   -6.383003|   -6.819891|   -6.944134|   -6.574515|   -8.827873|    2.492478|
|        6544|  5.6724e+00|   -6.297395|   -6.382641|   -6.819531|   -6.943902|   -6.574248|   -8.828031|    2.492468|
|        6545|  5.6724e+00|   -6.297003|   -6.382274|   -6.819172|   -6.943672|   -6.573978|   -8.828190|    2.492457|
|        6546|  5.6724e+00|   -6.296607|   -6.381903|   -6.818815|   -6.943443|   -6.573705|   -8.828348|    2.492447|
|        6547|  5.6723e+00|   -6.296209|   -6.381527|   -6.818459|   -6.943215|   -6.573430|   -8.828506|    2.492436|
|        6548|  5.6723e+00|   -6.295809|   -6.381146|   -6.818105|   -6.942990|   -6.573152|   -8.828663|    2.492425|
|        6549|  5.6723e+00|   -6.295406|   -6.380761|   -6.817752|   -6.942766|   -6.572872|   -8.828821|    2.492415|
|        6550|  5.6723e+00|   -6.295001|   -6.380372|   -6.817400|   -6.942544|   -6.572589|   -8.828978|    2.492404|
|        6551|  5.6722e+00|   -6.294593|   -6.379978|   -6.817051|   -6.942323|   -6.572304|   -8.829135|    2.492394|
|        6552|  5.6722e+00|   -6.294184|   -6.379580|   -6.816703|   -6.942105|   -6.572017|   -8.829291|    2.492383|
|        6553|  5.6722e+00|   -6.293773|   -6.379179|   -6.816358|   -6.941889|   -6.571727|   -8.829448|    2.492372|
|        6554|  5.6722e+00|   -6.293360|   -6.378772|   -6.816013|   -6.941674|   -6.571436|   -8.829604|    2.492362|
|        6555|  5.6722e+00|   -6.292944|   -6.378362|   -6.815670|   -6.941461|   -6.571141|   -8.829760|    2.492351|
|        6556|  5.6722e+00|   -6.292526|   -6.377947|   -6.815328|   -6.941250|   -6.570845|   -8.829916|    2.492341|
|        6557|  5.6721e+00|   -6.292105|   -6.377529|   -6.814987|   -6.941041|   -6.570545|   -8.830071|    2.492330|
|        6558|  5.6721e+00|   -6.291683|   -6.377106|   -6.814648|   -6.940833|   -6.570244|   -8.830226|    2.492320|
|        6559|  5.6721e+00|   -6.291259|   -6.376679|   -6.814311|   -6.940628|   -6.569940|   -8.830381|    2.492309|
|        6560|  5.6721e+00|   -6.290833|   -6.376248|   -6.813975|   -6.940424|   -6.569634|   -8.830536|    2.492299|
|        6561|  5.6720e+00|   -6.290405|   -6.375814|   -6.813641|   -6.940223|   -6.569326|   -8.830690|    2.492288|
|        6562|  5.6720e+00|   -6.289975|   -6.375375|   -6.813309|   -6.940023|   -6.569015|   -8.830844|    2.492278|
|        6563|  5.6720e+00|   -6.289544|   -6.374933|   -6.812978|   -6.939825|   -6.568703|   -8.830998|    2.492267|
|        6564|  5.6720e+00|   -6.289110|   -6.374487|   -6.812649|   -6.939629|   -6.568388|   -8.831151|    2.492257|
|        6565|  5.6720e+00|   -6.288675|   -6.374037|   -6.812322|   -6.939435|   -6.568072|   -8.831304|    2.492246|
|        6566|  5.6719e+00|   -6.288238|   -6.373584|   -6.811997|   -6.939243|   -6.567753|   -8.831457|    2.492236|
|        6567|  5.6719e+00|   -6.287800|   -6.373128|   -6.811673|   -6.939053|   -6.567432|   -8.831610|    2.492225|
|        6568|  5.6719e+00|   -6.287360|   -6.372667|   -6.811351|   -6.938865|   -6.567109|   -8.831762|    2.492215|
|        6569|  5.6719e+00|   -6.286918|   -6.372203|   -6.811030|   -6.938679|   -6.566784|   -8.831914|    2.492204|
|        6570|  5.6719e+00|   -6.286475|   -6.371736|   -6.810711|   -6.938495|   -6.566458|   -8.832066|    2.492194|
|        6571|  5.6718e+00|   -6.286030|   -6.371266|   -6.810395|   -6.938313|   -6.566129|   -8.832217|    2.492183|
|        6572|  5.6718e+00|   -6.285585|   -6.370793|   -6.810082|   -6.938133|   -6.565800|   -8.832368|    2.492173|
|        6573|  5.6718e+00|   -6.285138|   -6.370316|   -6.809771|   -6.937955|   -6.565468|   -8.832518|    2.492162|
|        6574|  5.6718e+00|   -6.284689|   -6.369836|   -6.809461|   -6.937780|   -6.565134|   -8.832669|    2.492152|
|        6575|  5.6718e+00|   -6.284240|   -6.369354|   -6.809154|   -6.937606|   -6.564799|   -8.832819|    2.492141|
|        6576|  5.6718e+00|   -6.283790|   -6.368868|   -6.808849|   -6.937435|   -6.564463|   -8.832968|    2.492131|
|        6577|  5.6718e+00|   -6.283339|   -6.368379|   -6.808546|   -6.937266|   -6.564125|   -8.833118|    2.492121|
|        6578|  5.6718e+00|   -6.282885|   -6.367887|   -6.808244|   -6.937099|   -6.563784|   -8.833267|    2.492110|
|        6579|  5.6718e+00|   -6.282431|   -6.367391|   -6.807944|   -6.936934|   -6.563441|   -8.833415|    2.492100|
|        6580|  5.6718e+00|   -6.281975|   -6.366893|   -6.807645|   -6.936771|   -6.563097|   -8.833563|    2.492089|
|        6581|  5.6718e+00|   -6.281517|   -6.366391|   -6.807347|   -6.936610|   -6.562750|   -8.833711|    2.492079|
|        6582|  5.6718e+00|   -6.281059|   -6.365887|   -6.807051|   -6.936450|   -6.562402|   -8.833859|    2.492069|
|        6583|  5.6718e+00|   -6.280599|   -6.365381|   -6.806756|   -6.936293|   -6.562052|   -8.834006|    2.492058|
|        6584|  5.6718e+00|   -6.280138|   -6.364871|   -6.806464|   -6.936138|   -6.561700|   -8.834153|    2.492048|
|        6585|  5.6718e+00|   -6.279676|   -6.364359|   -6.806173|   -6.935986|   -6.561347|   -8.834299|    2.492038|
|        6586|  5.6718e+00|   -6.279214|   -6.363845|   -6.805884|   -6.935836|   -6.560992|   -8.834445|    2.492027|
|        6587|  5.6717e+00|   -6.278751|   -6.363328|   -6.805597|   -6.935687|   -6.560636|   -8.834591|    2.492017|
|        6588|  5.6718e+00|   -6.278286|   -6.362809|   -6.805312|   -6.935541|   -6.560279|   -8.834737|    2.492007|
|        6589|  5.6717e+00|   -6.277821|   -6.362287|   -6.805029|   -6.935397|   -6.559920|   -8.834882|    2.491997|
|        6590|  5.6717e+00|   -6.277355|   -6.361763|   -6.804747|   -6.935254|   -6.559559|   -8.835026|    2.491986|
|        6591|  5.6717e+00|   -6.276889|   -6.361237|   -6.804468|   -6.935114|   -6.559198|   -8.835170|    2.491976|
|        6592|  5.6717e+00|   -6.276422|   -6.360710|   -6.804191|   -6.934976|   -6.558835|   -8.835314|    2.491966|
|        6593|  5.6717e+00|   -6.275955|   -6.360180|   -6.803917|   -6.934840|   -6.558472|   -8.835458|    2.491956|
|        6594|  5.6717e+00|   -6.275489|   -6.359649|   -6.803646|   -6.934706|   -6.558109|   -8.835601|    2.491945|
|        6595|  5.6717e+00|   -6.275022|   -6.359116|   -6.803377|   -6.934575|   -6.557744|   -8.835743|    2.491935|
|        6596|  5.6717e+00|   -6.274555|   -6.358582|   -6.803111|   -6.934445|   -6.557379|   -8.835885|    2.491925|
|        6597|  5.6717e+00|   -6.274087|   -6.358045|   -6.802846|   -6.934318|   -6.557012|   -8.836027|    2.491915|
|        6598|  5.6717e+00|   -6.273618|   -6.357507|   -6.802581|   -6.934192|   -6.556643|   -8.836169|    2.491905|
|        6599|  5.6717e+00|   -6.273148|   -6.356966|   -6.802319|   -6.934069|   -6.556273|   -8.836310|    2.491894|
|        6600|  5.6717e+00|   -6.272678|   -6.356424|   -6.802058|   -6.933948|   -6.555902|   -8.836450|    2.491884|
+-----------------------------------------------------------------------+
|        File Writing Summary       |              Filename             |
+-----------------------------------------------------------------------+
|SU2 binary restart                 |restart_flow.dat                   |
|Paraview                           |flow.vtu                           |
|Paraview surface                   |surface_flow.vtu                   |
+-----------------------------------------------------------------------+
+--------------------------------------------------------------------------------------------------------------------+
|  Inner_Iter|   Time(sec)|    rms[Rho]|   rms[RhoU]|   rms[RhoV]|   rms[RhoW]|   rms[RhoE]|     rms[nu]|          CD|
+--------------------------------------------------------------------------------------------------------------------+
|        6601|  5.6756e+00|   -6.272208|   -6.355880|   -6.801799|   -6.933829|   -6.555529|   -8.836591|    2.491874|
|        6602|  5.6756e+00|   -6.271736|   -6.355335|   -6.801542|   -6.933712|   -6.555155|   -8.836731|    2.491864|
|        6603|  5.6756e+00|   -6.271265|   -6.354788|   -6.801287|   -6.933597|   -6.554780|   -8.836870|    2.491854|
|        6604|  5.6756e+00|   -6.270792|   -6.354239|   -6.801033|   -6.933484|   -6.554404|   -8.837009|    2.491844|
|        6605|  5.6756e+00|   -6.270320|   -6.353688|   -6.800781|   -6.933373|   -6.554027|   -8.837147|    2.491834|
|        6606|  5.6757e+00|   -6.269846|   -6.353136|   -6.800531|   -6.933264|   -6.553648|   -8.837286|    2.491824|
|        6607|  5.6757e+00|   -6.269372|   -6.352583|   -6.800283|   -6.933157|   -6.553268|   -8.837423|    2.491814|
|        6608|  5.6757e+00|   -6.268898|   -6.352028|   -6.800036|   -6.933053|   -6.552887|   -8.837561|    2.491804|
|        6609|  5.6757e+00|   -6.268424|   -6.351471|   -6.799792|   -6.932950|   -6.552506|   -8.837698|    2.491794|
|        6610|  5.6757e+00|   -6.267949|   -6.350914|   -6.799549|   -6.932850|   -6.552123|   -8.837834|    2.491784|
|        6611|  5.6757e+00|   -6.267475|   -6.350355|   -6.799308|   -6.932752|   -6.551739|   -8.837970|    2.491774|
|        6612|  5.6757e+00|   -6.267000|   -6.349795|   -6.799070|   -6.932655|   -6.551355|   -8.838106|    2.491764|
|        6613|  5.6757e+00|   -6.266524|   -6.349233|   -6.798833|   -6.932561|   -6.550969|   -8.838241|    2.491754|
|        6614|  5.6757e+00|   -6.266049|   -6.348671|   -6.798598|   -6.932469|   -6.550582|   -8.838375|    2.491744|
|        6615|  5.6757e+00|   -6.265573|   -6.348107|   -6.798365|   -6.932379|   -6.550195|   -8.838510|    2.491734|
|        6616|  5.6757e+00|   -6.265098|   -6.347542|   -6.798134|   -6.932291|   -6.549807|   -8.838643|    2.491724|
|        6617|  5.6757e+00|   -6.264622|   -6.346977|   -6.797907|   -6.932206|   -6.549419|   -8.838777|    2.491714|
|        6618|  5.6757e+00|   -6.264147|   -6.346411|   -6.797682|   -6.932122|   -6.549030|   -8.838910|    2.491704|
|        6619|  5.6757e+00|   -6.263673|   -6.345844|   -6.797459|   -6.932041|   -6.548641|   -8.839042|    2.491694|
|        6620|  5.6757e+00|   -6.263198|   -6.345277|   -6.797238|   -6.931961|   -6.548251|   -8.839174|    2.491684|
|        6621|  5.6757e+00|   -6.262724|   -6.344708|   -6.797019|   -6.931884|   -6.547861|   -8.839306|    2.491675|
|        6622|  5.6757e+00|   -6.262250|   -6.344140|   -6.796803|   -6.931809|   -6.547471|   -8.839437|    2.491665|
|        6623|  5.6757e+00|   -6.261777|   -6.343571|   -6.796589|   -6.931735|   -6.547080|   -8.839567|    2.491655|
|        6624|  5.6757e+00|   -6.261304|   -6.343001|   -6.796378|   -6.931664|   -6.546689|   -8.839698|    2.491645|
|        6625|  5.6757e+00|   -6.260832|   -6.342431|   -6.796169|   -6.931594|   -6.546297|   -8.839827|    2.491636|
