Nodes: tri[1098-1099]
Tasks: 128
NPN:   64

-------------------------------------------------------------------------
|    ___ _   _ ___                                                      |
|   / __| | | |_  )   Release 7.5.1 "Blackbird"                         |
|   \__ \ |_| |/ /                                                      |
|   |___/\___//___|   Suite (Computational Fluid Dynamics Code)         |
|                                                                       |
-------------------------------------------------------------------------
| SU2 Project Website: https://su2code.github.io                        |
|                                                                       |
| The SU2 Project is maintained by the SU2 Foundation                   |
| (http://su2foundation.org)                                            |
-------------------------------------------------------------------------
| Copyright 2012-2023, SU2 Contributors                                 |
|                                                                       |
| SU2 is free software; you can redistribute it and/or                  |
| modify it under the terms of the GNU Lesser General Public            |
| License as published by the Free Software Foundation; either          |
| version 2.1 of the License, or (at your option) any later version.    |
|                                                                       |
| SU2 is distributed in the hope that it will be useful,                |
| but WITHOUT ANY WARRANTY; without even the implied warranty of        |
| MERCHANTABILITY or FITNESS FOR A PARTICULAR PURPOSE. See the GNU      |
| Lesser General Public License for more details.                       |
|                                                                       |
| You should have received a copy of the GNU Lesser General Public      |
| License along with SU2. If not, see <http://www.gnu.org/licenses/>.   |
-------------------------------------------------------------------------

Parsing config file for zone 0

----------------- Physical Case Definition ( Zone 0 ) -------------------
Compressible RANS equations.
Turbulence model: Spalart-Allmaras-noft2
Hybrid RANS/LES: No Hybrid RANS/LES
Mach number: 6.
Angle of attack (AoA): 24 deg, and angle of sideslip (AoS): 0 deg.
Reynolds number: 6.86229e+08. Reference length 5.
Reading and writing binary SU2 native restart files.
Read flow solution from: restart_flow.dat.
Non-Dimensional simulation (V=1.0, Rho=1.0, T=1.0 at the farfield).
The reference area will be computed using y(2D) or z(3D) projection.
The semi-span will be computed using the max y(3D) value.
The reference length is 0.64607 m.
Reference origin for moment evaluation is (0.25, 0, 0).
Surface(s) where the force coefficients are evaluated: ORION_SURFACE.

Input mesh file name: fine.su2

--------------- Space Numerical Integration ( Zone 0 ) ------------------
Jameson-Schmidt-Turkel scheme (2nd order in space) for the flow inviscid terms.
JST viscous coefficients (2nd & 4th): 0.5, 0.02.
The method includes a grid stretching correction (p = 0.3).
Scalar upwind solver for the turbulence model.
First order integration in space.
Average of gradients with correction (viscous flow terms).
Average of gradients with correction (viscous turbulence terms).
Gradient for upwind reconstruction: Green-Gauss.
Gradient for viscous and source terms: Green-Gauss.

--------------- Time Numerical Integration  ( Zone 0 ) ------------------
Local time stepping (steady state simulation).
Euler implicit method for the flow equations.
FGMRES is used for solving the linear system.
Using a ILU(0) preconditioning.
Convergence criteria of the linear solver: 1e-06.
Max number of linear iterations: 100.
CFL adaptation. Factor down: 0.5, factor up: 1.1,
                lower limit: 0.05, upper limit: 0.5,
                acceptable linear residual: 0.001.
Courant-Friedrichs-Lewy number:     0.03
Euler implicit time integration for the turbulence model.

------------------ Convergence Criteria  ( Zone 0 ) ---------------------
Maximum number of solver subiterations: 999999.
Begin convergence monitoring at iteration 5.
Residual minimum value: 1e-8.
Cauchy series min. value: 1e-10.
Number of Cauchy elements: 100.
Begin windowed time average at iteration 0.

-------------------- Output Information ( Zone 0 ) ----------------------
File writing frequency: 
+------------------------------------+
|                     File| Frequency|
+------------------------------------+
|                  RESTART|       150|
|                 PARAVIEW|       150|
|         SURFACE_PARAVIEW|       150|
+------------------------------------+
Writing the convergence history file every 1 inner iterations.
Writing the screen convergence history every 1 inner iterations.
The tabular file format is CSV (.csv).
Convergence history file name: history.
Forces breakdown file name: forces_breakdown.dat.
Surface file name: surface_flow.
Volume file name: flow.
Restart file name: restart_flow.

------------- Config File Boundary Information ( Zone 0 ) ---------------
+-----------------------------------------------------------------------+
|                        Marker Type|                        Marker Name|
+-----------------------------------------------------------------------+
|                          Far-field|                           FARFIELD|
+-----------------------------------------------------------------------+
|                     Heat flux wall|                      ORION_SURFACE|
+-----------------------------------------------------------------------+

-------------------- Output Preprocessing ( Zone 0 ) --------------------

WARNING: SURFACE_PRESSURE_DROP can only be computed for at least 2 surfaces (outlet, inlet, ...)

Screen output fields: INNER_ITER, WALL_TIME, MIN_DELTA_TIME, MAX_DELTA_TIME, MIN_CFL, MAX_CFL, AVG_CFL, RMS_DENSITY, RMS_MOMENTUM-X, RMS_MOMENTUM-Y, RMS_MOMENTUM-Z, RMS_ENERGY, RMS_NU_TILDE, DRAG
History output group(s): ITER, RMS_RES
Convergence field(s): RMS_DENSITY
Warning: No (valid) fields chosen for time convergence monitoring. Time convergence monitoring inactive.
Volume output fields: MACH, PRESSURE, TEMPERATURE, DENSITY, HEAT_FLUX, Y_PLUS, COORDINATES, SOLUTION

------------------- Geometry Preprocessing ( Zone 0 ) -------------------
Three dimensional problem.
62211324 grid points before partitioning.
190879888 volume elements before partitioning.
2 surface markers.
4104 boundary elements in index 0 (Marker = FARFIELD).
1824836 boundary elements in index 1 (Marker = ORION_SURFACE).
Executing the partitioning functions.
Building the graph adjacency structure.
Calling ParMETIS... graph partitioning complete (4959327 edge cuts).
Distributing ParMETIS coloring.
Rebalancing vertices.
Rebalancing volume element connectivity.
Rebalancing markers and surface elements.
66952290 vertices including ghost points. 
197997438 interior elements including halo cells. 
103171259 tetrahedra.
94500655 prisms.
325524 pyramids.
Establishing MPI communication patterns.
Setting point connectivity.
Renumbering points (Reverse Cuthill McKee Ordering).
Recomputing point connectivity.
Setting element connectivity.
Checking the numerical grid orientation.
All volume elements are correctly orientend.
All surface elements are correctly orientend.
Identifying edges and vertices.
Setting the control volume structure.
Volume of the computational grid: 535693.
Searching for the closest normal neighbors to the surfaces.
Storing a mapping from global to local point index.
Compute the surface curvature.
Max K: 132.896. Mean K: 3.9104. Standard deviation K: 7.49569.
Checking for periodicity.
Computing mesh quality statistics for the dual control volumes.
+--------------------------------------------------------------+
|           Mesh Quality Metric|        Minimum|        Maximum|
+--------------------------------------------------------------+
|    Orthogonality Angle (deg.)|        53.0661|             90|
|     CV Face Area Aspect Ratio|        1.01143|        75298.5|
|           CV Sub-Volume Ratio|        1.00029|        45.0258|
+--------------------------------------------------------------+
Finding max control volume width.
Communicating number of neighbors.
Reference area = 11.531 m^2.
Semi-span length = 2.49999 m.
Wetted area = 57.9072 m^2.
Area projection in the x-plane = 19.6343 m^2, y-plane = 11.531 m^2, z-plane = 11.531 m^2.
Max. coordinate in the x-direction = 2.575 m, y-direction = 2.49999 m, z-direction = 2.49999 m.
Min. coordinate in the x-direction = -0.71 m, y-direction = -2.49999 m, z-direction = -2.5 m.
Computing wall distances.

-------------------- Solver Preprocessing ( Zone 0 ) --------------------
Viscous flow: Computing pressure using the ideal gas law
based on the free-stream temperature and a density computed
from the Reynolds number.
Force coefficients computed using free-stream values.

-- Models:
+------------------------------------------------------------------------------+
|          Viscosity Model|        Conductivity Model|              Fluid Model|
+------------------------------------------------------------------------------+
|               SUTHERLAND|          CONSTANT_PRANDTL|             STANDARD_AIR|
+------------------------------------------------------------------------------+
-- Fluid properties:
+------------------------------------------------------------------------------+
|                  Name|    Dim. value|    Ref. value|      Unit|Non-dim. value|
+------------------------------------------------------------------------------+
|        Ref. Viscosity|     1.716e-05|       2455.73|   N.s/m^2|   6.98773e-09|
|      Sutherland Temp.|        273.15|        288.15|         K|      0.947944|
|     Sutherland Const.|         110.4|        288.15|         K|      0.383134|
+------------------------------------------------------------------------------+
|        Prandtl (Lam.)|             -|             -|         -|          0.72|
|       Prandtl (Turb.)|             -|             -|         -|           0.9|
+------------------------------------------------------------------------------+
|          Gas Constant|       287.058|       14467.7|  N.m/kg.K|     0.0198413|
|      Spec. Heat Ratio|             -|             -|         -|           1.4|
+------------------------------------------------------------------------------+
-- Initial and free-stream conditions:
+------------------------------------------------------------------------------+
|                  Name|    Dim. value|    Ref. value|      Unit|Non-dim. value|
+------------------------------------------------------------------------------+
|       Static Pressure|       99485.6|   5.01407e+06|        Pa|     0.0198413|
|               Density|       1.20274|       1.20274|    kg/m^3|             1|
|           Temperature|        288.15|        288.15|         K|             1|
|          Total Energy|   2.29123e+06|   4.16887e+06|   m^2/s^2|      0.549603|
|            Velocity-X|       1865.26|       2041.78|       m/s|      0.913545|
|            Velocity-Y|             0|       2041.78|       m/s|             0|
|            Velocity-Z|       830.468|       2041.78|       m/s|      0.406737|
|    Velocity Magnitude|       2041.78|       2041.78|       m/s|             1|
+------------------------------------------------------------------------------+
|             Viscosity|    1.7893e-05|       2455.73|   N.s/m^2|    7.2862e-09|
|          Conductivity|             -|   3.55289e+07|   W/m^2.K|             -|
|     Turb. Kin. Energy|       15633.3|   4.16887e+06|   m^2/s^2|       0.00375|
|     Spec. Dissipation|   1.05085e+08|       2041.78|       1/s|       51467.1|
+------------------------------------------------------------------------------+
|           Mach Number|             -|             -|         -|             6|
|       Reynolds Number|             -|             -|         -|   6.86229e+08|
+------------------------------------------------------------------------------+
Initialize Jacobian structure (Navier-Stokes). MG level: 0.
Initialize Jacobian structure (SA model).

------------------- Numerics Preprocessing ( Zone 0 ) -------------------

----------------- Integration Preprocessing ( Zone 0 ) ------------------

------------------- Iteration Preprocessing ( Zone 0 ) ------------------
Euler/Navier-Stokes/RANS fluid iteration.

------------------------------ Begin Solver -----------------------------

Simulation Run using the Single-zone Driver
WARNING: SU2 was not compiled for an AVX-capable architecture. Performance could be better,
         see https://su2code.github.io/docs_v7/Build-SU2-Linux-MacOS/#compiler-optimizations
+-------------------------------------------------------------------------------------------------------------------------------------------------------------------------------------+
|  Inner_Iter|   Time(sec)|      Min DT|      Max DT|     Min CFL|     Max CFL|     Avg CFL|    rms[Rho]|   rms[RhoU]|   rms[RhoV]|   rms[RhoW]|   rms[RhoE]|     rms[nu]|          CD|
+-------------------------------------------------------------------------------------------------------------------------------------------------------------------------------------+
|           0|  8.8776e+00|  2.6481e-10|  4.6179e-02|  5.0000e-02|  5.0000e-02|  5.0000e-02|   -6.372444|   -6.517473|   -7.006195|   -6.734543|   -6.670399|   -9.029881|    2.052358|
|           1|  7.3486e+00|  4.4134e-10|  7.6965e-02|  5.5000e-02|  5.5000e-02|  5.5000e-02|   -6.372444|   -6.517448|   -7.006233|   -6.734556|   -6.670438|   -9.029810|    2.052356|
|           2|  6.8630e+00|  4.8548e-10|  8.4662e-02|  6.0500e-02|  6.0500e-02|  6.0500e-02|   -6.372441|   -6.517405|   -7.006290|   -6.734572|   -6.670495|   -9.029755|    2.052355|
|           3|  6.6069e+00|  5.3402e-10|  9.3128e-02|  6.6550e-02|  6.6550e-02|  6.6550e-02|   -6.372435|   -6.517357|   -7.006350|   -6.734588|   -6.670555|   -9.029695|    2.052353|
|           4|  6.4142e+00|  5.8743e-10|  1.0244e-01|  7.3205e-02|  7.3205e-02|  7.3205e-02|   -6.372428|   -6.517304|   -7.006412|   -6.734604|   -6.670618|   -9.029628|    2.052351|
|           5|  6.2752e+00|  6.4617e-10|  1.1269e-01|  8.0526e-02|  8.0526e-02|  8.0526e-02|   -6.372417|   -6.517246|   -7.006477|   -6.734619|   -6.670683|   -9.029555|    2.052348|
|           6|  6.1693e+00|  7.1078e-10|  1.2395e-01|  8.8578e-02|  8.8578e-02|  8.8578e-02|   -6.372404|   -6.517180|   -7.006544|   -6.734633|   -6.670751|   -9.029474|    2.052346|
|           7|  6.0836e+00|  7.8186e-10|  1.3635e-01|  9.7436e-02|  9.7436e-02|  9.7436e-02|   -6.372386|   -6.517107|   -7.006612|   -6.734645|   -6.670820|   -9.029385|    2.052343|
|           8|  6.0009e+00|  8.6005e-10|  1.4998e-01|  1.0718e-01|  1.0718e-01|  1.0718e-01|   -6.372364|   -6.517025|   -7.006680|   -6.734654|   -6.670891|   -9.029288|    2.052340|
|           9|  5.9436e+00|  9.4605e-10|  1.6498e-01|  1.1790e-01|  1.1790e-01|  1.1790e-01|   -6.372335|   -6.516934|   -7.006748|   -6.734659|   -6.670961|   -9.029180|    2.052336|
|          10|  5.9531e+00|  1.0407e-09|  1.8148e-01|  1.2969e-01|  1.2969e-01|  1.2969e-01|   -6.372299|   -6.516833|   -7.006814|   -6.734659|   -6.671031|   -9.029062|    2.052333|
|          11|  5.9396e+00|  1.1447e-09|  1.9963e-01|  1.4266e-01|  1.4266e-01|  1.4266e-01|   -6.372255|   -6.516719|   -7.006877|   -6.734653|   -6.671097|   -9.028932|    2.052329|
|          12|  5.9227e+00|  1.2592e-09|  2.1959e-01|  1.5692e-01|  1.5692e-01|  1.5692e-01|   -6.372200|   -6.516591|   -7.006934|   -6.734639|   -6.671159|   -9.028789|    2.052324|
|          13|  5.9129e+00|  1.3851e-09|  2.4155e-01|  1.7261e-01|  1.7261e-01|  1.7261e-01|   -6.372133|   -6.516447|   -7.006982|   -6.734615|   -6.671215|   -9.028632|    2.052319|
|          14|  5.8954e+00|  1.5236e-09|  2.6571e-01|  1.8987e-01|  1.8987e-01|  1.8987e-01|   -6.372051|   -6.516285|   -7.007020|   -6.734578|   -6.671260|   -9.028459|    2.052314|
|          15|  5.8717e+00|  1.6760e-09|  2.9228e-01|  2.0886e-01|  2.0886e-01|  2.0886e-01|   -6.371951|   -6.516102|   -7.007044|   -6.734525|   -6.671292|   -9.028269|    2.052308|
|          16|  5.8640e+00|  1.8435e-09|  3.2150e-01|  2.2975e-01|  2.2975e-01|  2.2975e-01|   -6.371829|   -6.515895|   -7.007048|   -6.734453|   -6.671307|   -9.028060|    2.052301|
|          17|  5.8540e+00|  2.0279e-09|  3.5365e-01|  2.5272e-01|  2.5272e-01|  2.5272e-01|   -6.371683|   -6.515660|   -7.007029|   -6.734358|   -6.671298|   -9.027830|    2.052294|
|          18|  5.8425e+00|  2.2307e-09|  3.8902e-01|  2.7800e-01|  2.7800e-01|  2.7800e-01|   -6.371506|   -6.515393|   -7.006980|   -6.734235|   -6.671261|   -9.027578|    2.052286|
|          19|  5.8398e+00|  2.4537e-09|  4.2792e-01|  3.0580e-01|  3.0580e-01|  3.0580e-01|   -6.371294|   -6.515087|   -7.006894|   -6.734077|   -6.671187|   -9.027300|    2.052278|
|          20|  5.8584e+00|  2.6991e-09|  4.7071e-01|  3.3637e-01|  3.3637e-01|  3.3637e-01|   -6.371039|   -6.514737|   -7.006764|   -6.733877|   -6.671067|   -9.026995|    2.052268|
|          21|  5.8779e+00|  2.9690e-09|  5.1778e-01|  3.7001e-01|  3.7001e-01|  3.7001e-01|   -6.370733|   -6.514334|   -7.006579|   -6.733628|   -6.670890|   -9.026660|    2.052257|
|          22|  5.8943e+00|  3.2658e-09|  5.6956e-01|  4.0701e-01|  4.0701e-01|  4.0701e-01|   -6.370366|   -6.513870|   -7.006331|   -6.733318|   -6.670642|   -9.026292|    2.052246|
|          23|  5.9005e+00|  3.5924e-09|  6.2652e-01|  4.4772e-01|  4.4772e-01|  4.4772e-01|   -6.369928|   -6.513331|   -7.006005|   -6.732936|   -6.670308|   -9.025889|    2.052233|
|          24|  5.9080e+00|  3.9516e-09|  6.8917e-01|  4.9249e-01|  4.9249e-01|  4.9249e-01|   -6.369404|   -6.512705|   -7.005589|   -6.732469|   -6.669867|   -9.025446|    2.052219|
|          25|  5.9137e+00|  4.3467e-09|  7.5809e-01|  5.0000e-01|  5.0000e-01|  5.0000e-01|   -6.368776|   -6.511975|   -7.005067|   -6.731897|   -6.669296|   -9.024960|    2.052204|
|          26|  5.9246e+00|  4.4130e-09|  7.6965e-01|  5.0000e-01|  5.0000e-01|  5.0000e-01|   -6.368025|   -6.511119|   -7.004421|   -6.731201|   -6.668566|   -9.024520|    2.052189|
|          27|  5.9326e+00|  4.4130e-09|  7.6965e-01|  5.0000e-01|  5.0000e-01|  5.0000e-01|   -6.367246|   -6.510228|   -7.003764|   -6.730479|   -6.667799|   -9.024091|    2.052173|
|          28|  5.9380e+00|  4.4129e-09|  7.6965e-01|  5.0000e-01|  5.0000e-01|  5.0000e-01|   -6.366459|   -6.509321|   -7.003121|   -6.729753|   -6.667021|   -9.023663|    2.052158|
|          29|  5.9412e+00|  4.4129e-09|  7.6965e-01|  5.0000e-01|  5.0000e-01|  5.0000e-01|   -6.365664|   -6.508401|   -7.002491|   -6.729023|   -6.666233|   -9.023236|    2.052142|
|          30|  5.9465e+00|  4.4128e-09|  7.6965e-01|  5.0000e-01|  5.0000e-01|  5.0000e-01|   -6.364862|   -6.507467|   -7.001873|   -6.728288|   -6.665434|   -9.022810|    2.052127|
|          31|  5.9498e+00|  4.4128e-09|  7.6965e-01|  5.0000e-01|  5.0000e-01|  5.0000e-01|   -6.364052|   -6.506521|   -7.001266|   -6.727549|   -6.664626|   -9.022385|    2.052112|
|          32|  5.9527e+00|  4.4127e-09|  7.6965e-01|  5.0000e-01|  5.0000e-01|  5.0000e-01|   -6.363236|   -6.505563|   -7.000669|   -6.726807|   -6.663810|   -9.021961|    2.052097|
|          33|  5.9567e+00|  4.4127e-09|  7.6965e-01|  5.0000e-01|  5.0000e-01|  5.0000e-01|   -6.362413|   -6.504595|   -7.000081|   -6.726060|   -6.662985|   -9.021538|    2.052081|
|          34|  5.9603e+00|  4.4127e-09|  7.6965e-01|  5.0000e-01|  5.0000e-01|  5.0000e-01|   -6.361583|   -6.503618|   -6.999502|   -6.725309|   -6.662152|   -9.021116|    2.052066|
|          35|  5.9629e+00|  4.4126e-09|  7.6965e-01|  5.0000e-01|  5.0000e-01|  5.0000e-01|   -6.360747|   -6.502631|   -6.998930|   -6.724554|   -6.661312|   -9.020695|    2.052051|
|          36|  5.9683e+00|  4.4126e-09|  7.6965e-01|  5.0000e-01|  5.0000e-01|  5.0000e-01|   -6.359905|   -6.501638|   -6.998367|   -6.723795|   -6.660466|   -9.020274|    2.052036|
|          37|  5.9723e+00|  4.4125e-09|  7.6965e-01|  5.0000e-01|  5.0000e-01|  5.0000e-01|   -6.359059|   -6.500637|   -6.997811|   -6.723034|   -6.659615|   -9.019855|    2.052021|
|          38|  5.9766e+00|  4.4125e-09|  7.6965e-01|  5.0000e-01|  5.0000e-01|  5.0000e-01|   -6.358208|   -6.499632|   -6.997262|   -6.722271|   -6.658759|   -9.019436|    2.052006|
|          39|  5.9863e+00|  4.4124e-09|  7.6965e-01|  5.0000e-01|  5.0000e-01|  5.0000e-01|   -6.357355|   -6.498622|   -6.996718|   -6.721506|   -6.657900|   -9.019018|    2.051991|
|          40|  5.9969e+00|  4.4124e-09|  7.6965e-01|  5.0000e-01|  5.0000e-01|  5.0000e-01|   -6.356498|   -6.497608|   -6.996180|   -6.720740|   -6.657038|   -9.018601|    2.051976|
|          41|  6.0006e+00|  4.4124e-09|  7.6965e-01|  5.0000e-01|  5.0000e-01|  5.0000e-01|   -6.355640|   -6.496592|   -6.995648|   -6.719973|   -6.656175|   -9.018185|    2.051962|
|          42|  6.0041e+00|  4.4123e-09|  7.6965e-01|  5.0000e-01|  5.0000e-01|  5.0000e-01|   -6.354780|   -6.495574|   -6.995120|   -6.719206|   -6.655311|   -9.017769|    2.051947|
|          43|  6.0060e+00|  4.4123e-09|  7.6965e-01|  5.0000e-01|  5.0000e-01|  5.0000e-01|   -6.353921|   -6.494556|   -6.994597|   -6.718441|   -6.654448|   -9.017354|    2.051932|
|          44|  6.0089e+00|  4.4122e-09|  7.6965e-01|  5.0000e-01|  5.0000e-01|  5.0000e-01|   -6.353062|   -6.493538|   -6.994079|   -6.717676|   -6.653586|   -9.016940|    2.051917|
|          45|  6.0119e+00|  4.4122e-09|  7.6965e-01|  5.0000e-01|  5.0000e-01|  5.0000e-01|   -6.352203|   -6.492520|   -6.993565|   -6.716913|   -6.652726|   -9.016527|    2.051903|
|          46|  6.0139e+00|  4.4121e-09|  7.6965e-01|  5.0000e-01|  5.0000e-01|  5.0000e-01|   -6.351346|   -6.491504|   -6.993054|   -6.716151|   -6.651867|   -9.016114|    2.051888|
|          47|  6.0157e+00|  4.4121e-09|  7.6965e-01|  5.0000e-01|  5.0000e-01|  5.0000e-01|   -6.350491|   -6.490489|   -6.992547|   -6.715392|   -6.651012|   -9.015703|    2.051874|
|          48|  6.0176e+00|  4.4121e-09|  7.6965e-01|  5.0000e-01|  5.0000e-01|  5.0000e-01|   -6.349637|   -6.489478|   -6.992043|   -6.714636|   -6.650160|   -9.015291|    2.051859|
|          49|  6.0196e+00|  4.4120e-09|  7.6965e-01|  5.0000e-01|  5.0000e-01|  5.0000e-01|   -6.348787|   -6.488470|   -6.991542|   -6.713882|   -6.649313|   -9.014881|    2.051845|
|          50|  6.0210e+00|  4.4120e-09|  7.6965e-01|  5.0000e-01|  5.0000e-01|  5.0000e-01|   -6.347940|   -6.487465|   -6.991045|   -6.713131|   -6.648470|   -9.014471|    2.051830|
|          51|  6.0243e+00|  4.4119e-09|  7.6965e-01|  5.0000e-01|  5.0000e-01|  5.0000e-01|   -6.347097|   -6.486465|   -6.990550|   -6.712384|   -6.647631|   -9.014062|    2.051816|
|          52|  6.0272e+00|  4.4119e-09|  7.6965e-01|  5.0000e-01|  5.0000e-01|  5.0000e-01|   -6.346257|   -6.485469|   -6.990057|   -6.711640|   -6.646798|   -9.013654|    2.051801|
|          53|  6.0284e+00|  4.4118e-09|  7.6965e-01|  5.0000e-01|  5.0000e-01|  5.0000e-01|   -6.345422|   -6.484477|   -6.989566|   -6.710900|   -6.645970|   -9.013247|    2.051787|
|          54|  6.0294e+00|  4.4118e-09|  7.6965e-01|  5.0000e-01|  5.0000e-01|  5.0000e-01|   -6.344590|   -6.483490|   -6.989078|   -6.710164|   -6.645148|   -9.012840|    2.051773|
|          55|  6.0306e+00|  4.4117e-09|  7.6965e-01|  5.0000e-01|  5.0000e-01|  5.0000e-01|   -6.343764|   -6.482509|   -6.988592|   -6.709432|   -6.644332|   -9.012434|    2.051759|
|          56|  6.0316e+00|  4.4117e-09|  7.6965e-01|  5.0000e-01|  5.0000e-01|  5.0000e-01|   -6.342942|   -6.481532|   -6.988108|   -6.708704|   -6.643521|   -9.012028|    2.051745|
|          57|  6.0334e+00|  4.4117e-09|  7.6965e-01|  5.0000e-01|  5.0000e-01|  5.0000e-01|   -6.342125|   -6.480562|   -6.987626|   -6.707980|   -6.642717|   -9.011623|    2.051731|
|          58|  6.0351e+00|  4.4116e-09|  7.6965e-01|  5.0000e-01|  5.0000e-01|  5.0000e-01|   -6.341314|   -6.479596|   -6.987145|   -6.707260|   -6.641920|   -9.011220|    2.051716|
|          59|  6.0377e+00|  4.4116e-09|  7.6965e-01|  5.0000e-01|  5.0000e-01|  5.0000e-01|   -6.340507|   -6.478636|   -6.986667|   -6.706545|   -6.641128|   -9.010816|    2.051702|
|          60|  6.0411e+00|  4.4115e-09|  7.6965e-01|  5.0000e-01|  5.0000e-01|  5.0000e-01|   -6.339706|   -6.477682|   -6.986190|   -6.705833|   -6.640343|   -9.010414|    2.051689|
|          61|  6.0441e+00|  4.4115e-09|  7.6965e-01|  5.0000e-01|  5.0000e-01|  5.0000e-01|   -6.338910|   -6.476733|   -6.985715|   -6.705126|   -6.639563|   -9.010012|    2.051675|
|          62|  6.0450e+00|  4.4114e-09|  7.6965e-01|  5.0000e-01|  5.0000e-01|  5.0000e-01|   -6.338120|   -6.475789|   -6.985241|   -6.704423|   -6.638791|   -9.009611|    2.051661|
|          63|  6.0463e+00|  4.4114e-09|  7.6965e-01|  5.0000e-01|  5.0000e-01|  5.0000e-01|   -6.337335|   -6.474850|   -6.984769|   -6.703724|   -6.638024|   -9.009211|    2.051647|
|          64|  6.0473e+00|  4.4114e-09|  7.6965e-01|  5.0000e-01|  5.0000e-01|  5.0000e-01|   -6.336556|   -6.473918|   -6.984298|   -6.703030|   -6.637263|   -9.008811|    2.051633|
|          65|  6.0475e+00|  4.4113e-09|  7.6965e-01|  5.0000e-01|  5.0000e-01|  5.0000e-01|   -6.335780|   -6.472990|   -6.983829|   -6.702338|   -6.636507|   -9.008413|    2.051620|
|          66|  6.0483e+00|  4.4113e-09|  7.6965e-01|  5.0000e-01|  5.0000e-01|  5.0000e-01|   -6.335010|   -6.472066|   -6.983361|   -6.701650|   -6.635757|   -9.008015|    2.051606|
|          67|  6.0485e+00|  4.4112e-09|  7.6965e-01|  5.0000e-01|  5.0000e-01|  5.0000e-01|   -6.334245|   -6.471148|   -6.982894|   -6.700966|   -6.635011|   -9.007618|    2.051592|
|          68|  6.0487e+00|  4.4112e-09|  7.6965e-01|  5.0000e-01|  5.0000e-01|  5.0000e-01|   -6.333485|   -6.470235|   -6.982428|   -6.700285|   -6.634271|   -9.007221|    2.051579|
|          69|  6.0497e+00|  4.4111e-09|  7.6965e-01|  5.0000e-01|  5.0000e-01|  5.0000e-01|   -6.332729|   -6.469326|   -6.981963|   -6.699609|   -6.633536|   -9.006826|    2.051565|
|          70|  6.0511e+00|  4.4111e-09|  7.6965e-01|  5.0000e-01|  5.0000e-01|  5.0000e-01|   -6.331978|   -6.468422|   -6.981500|   -6.698936|   -6.632806|   -9.006431|    2.051552|
|          71|  6.0520e+00|  4.4111e-09|  7.6965e-01|  5.0000e-01|  5.0000e-01|  5.0000e-01|   -6.331232|   -6.467522|   -6.981038|   -6.698266|   -6.632081|   -9.006038|    2.051538|
|          72|  6.0531e+00|  4.4110e-09|  7.6965e-01|  5.0000e-01|  5.0000e-01|  5.0000e-01|   -6.330490|   -6.466626|   -6.980577|   -6.697599|   -6.631359|   -9.005645|    2.051525|
|          73|  6.0545e+00|  4.4110e-09|  7.6965e-01|  5.0000e-01|  5.0000e-01|  5.0000e-01|   -6.329753|   -6.465735|   -6.980117|   -6.696936|   -6.630642|   -9.005253|    2.051512|
|          74|  6.0552e+00|  4.4109e-09|  7.6965e-01|  5.0000e-01|  5.0000e-01|  5.0000e-01|   -6.329019|   -6.464848|   -6.979658|   -6.696276|   -6.629929|   -9.004862|    2.051498|
|          75|  6.0553e+00|  4.4109e-09|  7.6965e-01|  5.0000e-01|  5.0000e-01|  5.0000e-01|   -6.328290|   -6.463964|   -6.979200|   -6.695619|   -6.629220|   -9.004471|    2.051485|
|          76|  6.0564e+00|  4.4108e-09|  7.6965e-01|  5.0000e-01|  5.0000e-01|  5.0000e-01|   -6.327564|   -6.463084|   -6.978744|   -6.694964|   -6.628514|   -9.004082|    2.051472|
|          77|  6.0569e+00|  4.4108e-09|  7.6965e-01|  5.0000e-01|  5.0000e-01|  5.0000e-01|   -6.326842|   -6.462207|   -6.978288|   -6.694313|   -6.627811|   -9.003693|    2.051459|
|          78|  6.0599e+00|  4.4107e-09|  7.6965e-01|  5.0000e-01|  5.0000e-01|  5.0000e-01|   -6.326123|   -6.461334|   -6.977833|   -6.693664|   -6.627112|   -9.003306|    2.051446|
|          79|  6.0635e+00|  4.4107e-09|  7.6965e-01|  5.0000e-01|  5.0000e-01|  5.0000e-01|   -6.325408|   -6.460465|   -6.977379|   -6.693018|   -6.626415|   -9.002919|    2.051433|
|          80|  6.0668e+00|  4.4107e-09|  7.6965e-01|  5.0000e-01|  5.0000e-01|  5.0000e-01|   -6.324696|   -6.459598|   -6.976926|   -6.692374|   -6.625721|   -9.002533|    2.051420|
|          81|  6.0692e+00|  4.4106e-09|  7.6965e-01|  5.0000e-01|  5.0000e-01|  5.0000e-01|   -6.323986|   -6.458735|   -6.976474|   -6.691732|   -6.625029|   -9.002149|    2.051407|
|          82|  6.0704e+00|  4.4106e-09|  7.6965e-01|  5.0000e-01|  5.0000e-01|  5.0000e-01|   -6.323280|   -6.457874|   -6.976023|   -6.691093|   -6.624339|   -9.001765|    2.051394|
|          83|  6.0702e+00|  4.4105e-09|  7.6965e-01|  5.0000e-01|  5.0000e-01|  5.0000e-01|   -6.322576|   -6.457017|   -6.975573|   -6.690456|   -6.623652|   -9.001382|    2.051381|
|          84|  6.0723e+00|  4.4105e-09|  7.6965e-01|  5.0000e-01|  5.0000e-01|  5.0000e-01|   -6.321876|   -6.456162|   -6.975124|   -6.689821|   -6.622967|   -9.001000|    2.051369|
|          85|  6.0739e+00|  4.4104e-09|  7.6965e-01|  5.0000e-01|  5.0000e-01|  5.0000e-01|   -6.321178|   -6.455310|   -6.974676|   -6.689188|   -6.622284|   -9.000619|    2.051356|
|          86|  6.0750e+00|  4.4104e-09|  7.6965e-01|  5.0000e-01|  5.0000e-01|  5.0000e-01|   -6.320482|   -6.454460|   -6.974228|   -6.688557|   -6.621602|   -9.000239|    2.051343|
|          87|  6.0746e+00|  4.4104e-09|  7.6965e-01|  5.0000e-01|  5.0000e-01|  5.0000e-01|   -6.319789|   -6.453614|   -6.973781|   -6.687928|   -6.620922|   -8.999859|    2.051331|
|          88|  6.0752e+00|  4.4103e-09|  7.6965e-01|  5.0000e-01|  5.0000e-01|  5.0000e-01|   -6.319097|   -6.452769|   -6.973336|   -6.687300|   -6.620243|   -8.999481|    2.051318|
|          89|  6.0767e+00|  4.4103e-09|  7.6965e-01|  5.0000e-01|  5.0000e-01|  5.0000e-01|   -6.318408|   -6.451927|   -6.972891|   -6.686674|   -6.619565|   -8.999104|    2.051306|
|          90|  6.0776e+00|  4.4102e-09|  7.6965e-01|  5.0000e-01|  5.0000e-01|  5.0000e-01|   -6.317720|   -6.451088|   -6.972447|   -6.686049|   -6.618889|   -8.998728|    2.051294|
|          91|  6.0778e+00|  4.4102e-09|  7.6965e-01|  5.0000e-01|  5.0000e-01|  5.0000e-01|   -6.317035|   -6.450251|   -6.972004|   -6.685426|   -6.618213|   -8.998353|    2.051281|
|          92|  6.0780e+00|  4.4101e-09|  7.6965e-01|  5.0000e-01|  5.0000e-01|  5.0000e-01|   -6.316351|   -6.449416|   -6.971562|   -6.684804|   -6.617539|   -8.997978|    2.051269|
|          93|  6.0788e+00|  4.4101e-09|  7.6965e-01|  5.0000e-01|  5.0000e-01|  5.0000e-01|   -6.315669|   -6.448584|   -6.971121|   -6.684184|   -6.616865|   -8.997605|    2.051257|
|          94|  6.0789e+00|  4.4101e-09|  7.6965e-01|  5.0000e-01|  5.0000e-01|  5.0000e-01|   -6.314988|   -6.447754|   -6.970681|   -6.683564|   -6.616193|   -8.997233|    2.051244|
|          95|  6.0790e+00|  4.4100e-09|  7.6965e-01|  5.0000e-01|  5.0000e-01|  5.0000e-01|   -6.314309|   -6.446927|   -6.970242|   -6.682946|   -6.615521|   -8.996862|    2.051232|
|          96|  6.0790e+00|  4.4100e-09|  7.6965e-01|  5.0000e-01|  5.0000e-01|  5.0000e-01|   -6.313632|   -6.446101|   -6.969804|   -6.682329|   -6.614849|   -8.996491|    2.051220|
|          97|  6.0791e+00|  4.4099e-09|  7.6965e-01|  5.0000e-01|  5.0000e-01|  5.0000e-01|   -6.312956|   -6.445278|   -6.969366|   -6.681713|   -6.614179|   -8.996122|    2.051208|
|          98|  6.0831e+00|  4.4099e-09|  7.6965e-01|  5.0000e-01|  5.0000e-01|  5.0000e-01|   -6.312281|   -6.444457|   -6.968930|   -6.681098|   -6.613509|   -8.995754|    2.051196|
|          99|  6.0883e+00|  4.4098e-09|  7.6965e-01|  5.0000e-01|  5.0000e-01|  5.0000e-01|   -6.311609|   -6.443638|   -6.968495|   -6.680484|   -6.612839|   -8.995386|    2.051184|
|         100|  6.0894e+00|  4.4098e-09|  7.6965e-01|  5.0000e-01|  5.0000e-01|  5.0000e-01|   -6.310937|   -6.442821|   -6.968061|   -6.679871|   -6.612171|   -8.995020|    2.051173|
|         101|  6.0907e+00|  4.4098e-09|  7.6965e-01|  5.0000e-01|  5.0000e-01|  5.0000e-01|   -6.310267|   -6.442006|   -6.967627|   -6.679259|   -6.611502|   -8.994655|    2.051161|
|         102|  6.0902e+00|  4.4097e-09|  7.6965e-01|  5.0000e-01|  5.0000e-01|  5.0000e-01|   -6.309598|   -6.441193|   -6.967195|   -6.678648|   -6.610835|   -8.994291|    2.051149|
|         103|  6.0907e+00|  4.4097e-09|  7.6965e-01|  5.0000e-01|  5.0000e-01|  5.0000e-01|   -6.308931|   -6.440383|   -6.966764|   -6.678038|   -6.610167|   -8.993928|    2.051137|
|         104|  6.0906e+00|  4.4096e-09|  7.6965e-01|  5.0000e-01|  5.0000e-01|  5.0000e-01|   -6.308265|   -6.439575|   -6.966333|   -6.677428|   -6.609500|   -8.993565|    2.051126|
|         105|  6.0908e+00|  4.4096e-09|  7.6965e-01|  5.0000e-01|  5.0000e-01|  5.0000e-01|   -6.307600|   -6.438768|   -6.965903|   -6.676819|   -6.608833|   -8.993204|    2.051114|
|         106|  6.0908e+00|  4.4095e-09|  7.6965e-01|  5.0000e-01|  5.0000e-01|  5.0000e-01|   -6.306936|   -6.437964|   -6.965474|   -6.676212|   -6.608167|   -8.992844|    2.051103|
|         107|  6.0911e+00|  4.4095e-09|  7.6965e-01|  5.0000e-01|  5.0000e-01|  5.0000e-01|   -6.306274|   -6.437162|   -6.965048|   -6.675605|   -6.607502|   -8.992485|    2.051091|
|         108|  6.0906e+00|  4.4095e-09|  7.6965e-01|  5.0000e-01|  5.0000e-01|  5.0000e-01|   -6.305614|   -6.436362|   -6.964622|   -6.674999|   -6.606837|   -8.992127|    2.051080|
|         109|  6.0903e+00|  4.4094e-09|  7.6965e-01|  5.0000e-01|  5.0000e-01|  5.0000e-01|   -6.304955|   -6.435564|   -6.964197|   -6.674393|   -6.606173|   -8.991770|    2.051069|
|         110|  6.0900e+00|  4.4094e-09|  7.6965e-01|  5.0000e-01|  5.0000e-01|  5.0000e-01|   -6.304298|   -6.434769|   -6.963773|   -6.673789|   -6.605510|   -8.991414|    2.051057|
|         111|  6.0900e+00|  4.4093e-09|  7.6965e-01|  5.0000e-01|  5.0000e-01|  5.0000e-01|   -6.303642|   -6.433975|   -6.963350|   -6.673185|   -6.604847|   -8.991059|    2.051046|
|         112|  6.0899e+00|  4.4093e-09|  7.6965e-01|  5.0000e-01|  5.0000e-01|  5.0000e-01|   -6.302988|   -6.433184|   -6.962928|   -6.672582|   -6.604185|   -8.990705|    2.051035|
|         113|  6.0899e+00|  4.4092e-09|  7.6965e-01|  5.0000e-01|  5.0000e-01|  5.0000e-01|   -6.302336|   -6.432396|   -6.962507|   -6.671980|   -6.603525|   -8.990353|    2.051024|
|         114|  6.0894e+00|  4.4092e-09|  7.6965e-01|  5.0000e-01|  5.0000e-01|  5.0000e-01|   -6.301685|   -6.431609|   -6.962086|   -6.671379|   -6.602865|   -8.990001|    2.051013|
|         115|  6.0890e+00|  4.4091e-09|  7.6965e-01|  5.0000e-01|  5.0000e-01|  5.0000e-01|   -6.301037|   -6.430825|   -6.961667|   -6.670780|   -6.602206|   -8.989650|    2.051002|
|         116|  6.0898e+00|  4.4091e-09|  7.6965e-01|  5.0000e-01|  5.0000e-01|  5.0000e-01|   -6.300390|   -6.430044|   -6.961249|   -6.670181|   -6.601548|   -8.989300|    2.050991|
|         117|  6.0909e+00|  4.4091e-09|  7.6965e-01|  5.0000e-01|  5.0000e-01|  5.0000e-01|   -6.299745|   -6.429265|   -6.960832|   -6.669583|   -6.600892|   -8.988952|    2.050980|
|         118|  6.0915e+00|  4.4090e-09|  7.6965e-01|  5.0000e-01|  5.0000e-01|  5.0000e-01|   -6.299102|   -6.428488|   -6.960416|   -6.668986|   -6.600236|   -8.988604|    2.050970|
|         119|  6.0923e+00|  4.4090e-09|  7.6965e-01|  5.0000e-01|  5.0000e-01|  5.0000e-01|   -6.298461|   -6.427714|   -6.960001|   -6.668391|   -6.599582|   -8.988258|    2.050959|
|         120|  6.0937e+00|  4.4089e-09|  7.6965e-01|  5.0000e-01|  5.0000e-01|  5.0000e-01|   -6.297821|   -6.426942|   -6.959587|   -6.667796|   -6.598928|   -8.987912|    2.050948|
|         121|  6.0937e+00|  4.4089e-09|  7.6965e-01|  5.0000e-01|  5.0000e-01|  5.0000e-01|   -6.297184|   -6.426172|   -6.959175|   -6.667202|   -6.598276|   -8.987568|    2.050938|
|         122|  6.0932e+00|  4.4088e-09|  7.6965e-01|  5.0000e-01|  5.0000e-01|  5.0000e-01|   -6.296549|   -6.425406|   -6.958763|   -6.666610|   -6.597625|   -8.987225|    2.050927|
|         123|  6.0937e+00|  4.4088e-09|  7.6965e-01|  5.0000e-01|  5.0000e-01|  5.0000e-01|   -6.295916|   -6.424642|   -6.958353|   -6.666019|   -6.596976|   -8.986883|    2.050917|
|         124|  6.0933e+00|  4.4088e-09|  7.6965e-01|  5.0000e-01|  5.0000e-01|  5.0000e-01|   -6.295285|   -6.423880|   -6.957943|   -6.665430|   -6.596328|   -8.986542|    2.050907|
|         125|  6.0927e+00|  4.4087e-09|  7.6965e-01|  5.0000e-01|  5.0000e-01|  5.0000e-01|   -6.294656|   -6.423121|   -6.957535|   -6.664842|   -6.595682|   -8.986201|    2.050896|
|         126|  6.0927e+00|  4.4087e-09|  7.6965e-01|  5.0000e-01|  5.0000e-01|  5.0000e-01|   -6.294030|   -6.422365|   -6.957129|   -6.664256|   -6.595038|   -8.985862|    2.050886|
|         127|  6.0918e+00|  4.4086e-09|  7.6965e-01|  5.0000e-01|  5.0000e-01|  5.0000e-01|   -6.293406|   -6.421612|   -6.956723|   -6.663672|   -6.594395|   -8.985525|    2.050876|
|         128|  6.0906e+00|  4.4086e-09|  7.6965e-01|  5.0000e-01|  5.0000e-01|  5.0000e-01|   -6.292785|   -6.420861|   -6.956319|   -6.663089|   -6.593754|   -8.985188|    2.050866|
|         129|  6.0905e+00|  4.4085e-09|  7.6965e-01|  5.0000e-01|  5.0000e-01|  5.0000e-01|   -6.292165|   -6.420113|   -6.955916|   -6.662507|   -6.593114|   -8.984852|    2.050856|
|         130|  6.0903e+00|  4.4085e-09|  7.6965e-01|  5.0000e-01|  5.0000e-01|  5.0000e-01|   -6.291548|   -6.419368|   -6.955515|   -6.661927|   -6.592476|   -8.984517|    2.050846|
|         131|  6.0898e+00|  4.4085e-09|  7.6965e-01|  5.0000e-01|  5.0000e-01|  5.0000e-01|   -6.290933|   -6.418626|   -6.955114|   -6.661348|   -6.591840|   -8.984184|    2.050836|
|         132|  6.0896e+00|  4.4084e-09|  7.6965e-01|  5.0000e-01|  5.0000e-01|  5.0000e-01|   -6.290320|   -6.417887|   -6.954716|   -6.660772|   -6.591205|   -8.983851|    2.050826|
|         133|  6.0892e+00|  4.4084e-09|  7.6965e-01|  5.0000e-01|  5.0000e-01|  5.0000e-01|   -6.289710|   -6.417150|   -6.954318|   -6.660196|   -6.590572|   -8.983520|    2.050816|
|         134|  6.0886e+00|  4.4083e-09|  7.6965e-01|  5.0000e-01|  5.0000e-01|  5.0000e-01|   -6.289102|   -6.416417|   -6.953922|   -6.659623|   -6.589941|   -8.983189|    2.050806|
|         135|  6.0889e+00|  4.4083e-09|  7.6965e-01|  5.0000e-01|  5.0000e-01|  5.0000e-01|   -6.288496|   -6.415686|   -6.953527|   -6.659052|   -6.589312|   -8.982860|    2.050797|
|         136|  6.0892e+00|  4.4082e-09|  7.6965e-01|  5.0000e-01|  5.0000e-01|  5.0000e-01|   -6.287894|   -6.414958|   -6.953134|   -6.658482|   -6.588685|   -8.982532|    2.050787|
|         137|  6.0903e+00|  4.4082e-09|  7.6965e-01|  5.0000e-01|  5.0000e-01|  5.0000e-01|   -6.287294|   -6.414233|   -6.952743|   -6.657915|   -6.588060|   -8.982205|    2.050777|
|         138|  6.0911e+00|  4.4082e-09|  7.6965e-01|  5.0000e-01|  5.0000e-01|  5.0000e-01|   -6.286696|   -6.413512|   -6.952352|   -6.657349|   -6.587436|   -8.981878|    2.050768|
|         139|  6.0919e+00|  4.4081e-09|  7.6965e-01|  5.0000e-01|  5.0000e-01|  5.0000e-01|   -6.286100|   -6.412792|   -6.951963|   -6.656785|   -6.586815|   -8.981553|    2.050759|
|         140|  6.0924e+00|  4.4081e-09|  7.6965e-01|  5.0000e-01|  5.0000e-01|  5.0000e-01|   -6.285507|   -6.412076|   -6.951575|   -6.656223|   -6.586195|   -8.981230|    2.050749|
|         141|  6.0923e+00|  4.4080e-09|  7.6965e-01|  5.0000e-01|  5.0000e-01|  5.0000e-01|   -6.284916|   -6.411363|   -6.951188|   -6.655663|   -6.585576|   -8.980907|    2.050740|
|         142|  6.0920e+00|  4.4080e-09|  7.6965e-01|  5.0000e-01|  5.0000e-01|  5.0000e-01|   -6.284327|   -6.410653|   -6.950803|   -6.655104|   -6.584960|   -8.980585|    2.050731|
|         143|  6.0921e+00|  4.4079e-09|  7.6965e-01|  5.0000e-01|  5.0000e-01|  5.0000e-01|   -6.283741|   -6.409946|   -6.950419|   -6.654547|   -6.584345|   -8.980264|    2.050722|
|         144|  6.0927e+00|  4.4079e-09|  7.6965e-01|  5.0000e-01|  5.0000e-01|  5.0000e-01|   -6.283157|   -6.409241|   -6.950036|   -6.653992|   -6.583732|   -8.979945|    2.050712|
|         145|  6.0926e+00|  4.4079e-09|  7.6965e-01|  5.0000e-01|  5.0000e-01|  5.0000e-01|   -6.282575|   -6.408540|   -6.949655|   -6.653439|   -6.583121|   -8.979626|    2.050703|
|         146|  6.0924e+00|  4.4078e-09|  7.6965e-01|  5.0000e-01|  5.0000e-01|  5.0000e-01|   -6.281997|   -6.407842|   -6.949275|   -6.652888|   -6.582513|   -8.979309|    2.050694|
|         147|  6.0924e+00|  4.4078e-09|  7.6965e-01|  5.0000e-01|  5.0000e-01|  5.0000e-01|   -6.281420|   -6.407147|   -6.948896|   -6.652339|   -6.581906|   -8.978992|    2.050686|
|         148|  6.0926e+00|  4.4077e-09|  7.6965e-01|  5.0000e-01|  5.0000e-01|  5.0000e-01|   -6.280847|   -6.406454|   -6.948520|   -6.651792|   -6.581301|   -8.978677|    2.050677|
|         149|  6.0924e+00|  4.4077e-09|  7.6965e-01|  5.0000e-01|  5.0000e-01|  5.0000e-01|   -6.280276|   -6.405765|   -6.948144|   -6.651246|   -6.580699|   -8.978363|    2.050668|
|         150|  6.0924e+00|  4.4076e-09|  7.6965e-01|  5.0000e-01|  5.0000e-01|  5.0000e-01|   -6.279707|   -6.405079|   -6.947770|   -6.650703|   -6.580098|   -8.978050|    2.050659|
+-----------------------------------------------------------------------+
|        File Writing Summary       |              Filename             |
+-----------------------------------------------------------------------+
|SU2 binary restart                 |restart_flow.dat                   |
|Paraview                           |flow.vtu                           |
|Paraview surface                   |surface_flow.vtu                   |
+-----------------------------------------------------------------------+
+-------------------------------------------------------------------------------------------------------------------------------------------------------------------------------------+
|  Inner_Iter|   Time(sec)|      Min DT|      Max DT|     Min CFL|     Max CFL|     Avg CFL|    rms[Rho]|   rms[RhoU]|   rms[RhoV]|   rms[RhoW]|   rms[RhoE]|     rms[nu]|          CD|
+-------------------------------------------------------------------------------------------------------------------------------------------------------------------------------------+
|         151|  6.2356e+00|  4.4076e-09|  7.6965e-01|  5.0000e-01|  5.0000e-01|  5.0000e-01|   -6.279141|   -6.404396|   -6.947398|   -6.650162|   -6.579499|   -8.977738|    2.050651|
|         152|  6.2365e+00|  4.4076e-09|  7.6965e-01|  5.0000e-01|  5.0000e-01|  5.0000e-01|   -6.278578|   -6.403716|   -6.947027|   -6.649623|   -6.578903|   -8.977427|    2.050642|
|         153|  6.2356e+00|  4.4075e-09|  7.6965e-01|  5.0000e-01|  5.0000e-01|  5.0000e-01|   -6.278017|   -6.403040|   -6.946657|   -6.649087|   -6.578309|   -8.977117|    2.050634|
|         154|  6.2360e+00|  4.4075e-09|  7.6965e-01|  5.0000e-01|  5.0000e-01|  5.0000e-01|   -6.277460|   -6.402366|   -6.946289|   -6.648552|   -6.577718|   -8.976808|    2.050625|
|         155|  6.2348e+00|  4.4074e-09|  7.6965e-01|  5.0000e-01|  5.0000e-01|  5.0000e-01|   -6.276904|   -6.401696|   -6.945923|   -6.648019|   -6.577128|   -8.976500|    2.050617|
|         156|  6.2335e+00|  4.4074e-09|  7.6965e-01|  5.0000e-01|  5.0000e-01|  5.0000e-01|   -6.276352|   -6.401029|   -6.945558|   -6.647489|   -6.576540|   -8.976193|    2.050609|
|         157|  6.2320e+00|  4.4073e-09|  7.6965e-01|  5.0000e-01|  5.0000e-01|  5.0000e-01|   -6.275803|   -6.400365|   -6.945195|   -6.646961|   -6.575955|   -8.975888|    2.050601|
|         158|  6.2307e+00|  4.4073e-09|  7.6965e-01|  5.0000e-01|  5.0000e-01|  5.0000e-01|   -6.275256|   -6.399704|   -6.944833|   -6.646435|   -6.575372|   -8.975583|    2.050592|
|         159|  6.2295e+00|  4.4073e-09|  7.6965e-01|  5.0000e-01|  5.0000e-01|  5.0000e-01|   -6.274711|   -6.399047|   -6.944472|   -6.645911|   -6.574792|   -8.975279|    2.050584|
|         160|  6.2281e+00|  4.4072e-09|  7.6965e-01|  5.0000e-01|  5.0000e-01|  5.0000e-01|   -6.274170|   -6.398392|   -6.944114|   -6.645390|   -6.574213|   -8.974977|    2.050576|
|         161|  6.2268e+00|  4.4072e-09|  7.6965e-01|  5.0000e-01|  5.0000e-01|  5.0000e-01|   -6.273631|   -6.397741|   -6.943756|   -6.644870|   -6.573637|   -8.974675|    2.050568|
|         162|  6.2254e+00|  4.4071e-09|  7.6965e-01|  5.0000e-01|  5.0000e-01|  5.0000e-01|   -6.273095|   -6.397094|   -6.943401|   -6.644353|   -6.573064|   -8.974375|    2.050561|
|         163|  6.2240e+00|  4.4071e-09|  7.6965e-01|  5.0000e-01|  5.0000e-01|  5.0000e-01|   -6.272562|   -6.396449|   -6.943047|   -6.643838|   -6.572492|   -8.974076|    2.050553|
|         164|  6.2223e+00|  4.4070e-09|  7.6965e-01|  5.0000e-01|  5.0000e-01|  5.0000e-01|   -6.272031|   -6.395808|   -6.942694|   -6.643325|   -6.571923|   -8.973778|    2.050545|
|         165|  6.2206e+00|  4.4070e-09|  7.6965e-01|  5.0000e-01|  5.0000e-01|  5.0000e-01|   -6.271503|   -6.395170|   -6.942344|   -6.642813|   -6.571356|   -8.973480|    2.050537|
|         166|  6.2193e+00|  4.4070e-09|  7.6965e-01|  5.0000e-01|  5.0000e-01|  5.0000e-01|   -6.270978|   -6.394535|   -6.941995|   -6.642304|   -6.570791|   -8.973184|    2.050530|
|         167|  6.2174e+00|  4.4069e-09|  7.6965e-01|  5.0000e-01|  5.0000e-01|  5.0000e-01|   -6.270456|   -6.393904|   -6.941647|   -6.641797|   -6.570229|   -8.972889|    2.050522|
|         168|  6.2165e+00|  4.4069e-09|  7.6965e-01|  5.0000e-01|  5.0000e-01|  5.0000e-01|   -6.269936|   -6.393276|   -6.941301|   -6.641292|   -6.569669|   -8.972595|    2.050515|
|         169|  6.2153e+00|  4.4068e-09|  7.6965e-01|  5.0000e-01|  5.0000e-01|  5.0000e-01|   -6.269419|   -6.392651|   -6.940957|   -6.640789|   -6.569111|   -8.972302|    2.050508|
|         170|  6.2142e+00|  4.4068e-09|  7.6965e-01|  5.0000e-01|  5.0000e-01|  5.0000e-01|   -6.268905|   -6.392029|   -6.940614|   -6.640288|   -6.568555|   -8.972010|    2.050500|
|         171|  6.2127e+00|  4.4067e-09|  7.6965e-01|  5.0000e-01|  5.0000e-01|  5.0000e-01|   -6.268393|   -6.391411|   -6.940272|   -6.639790|   -6.568002|   -8.971719|    2.050493|
|         172|  6.2119e+00|  4.4067e-09|  7.6965e-01|  5.0000e-01|  5.0000e-01|  5.0000e-01|   -6.267884|   -6.390796|   -6.939932|   -6.639293|   -6.567450|   -8.971429|    2.050486|
|         173|  6.2117e+00|  4.4067e-09|  7.6965e-01|  5.0000e-01|  5.0000e-01|  5.0000e-01|   -6.267378|   -6.390184|   -6.939594|   -6.638798|   -6.566902|   -8.971140|    2.050479|
|         174|  6.2103e+00|  4.4066e-09|  7.6965e-01|  5.0000e-01|  5.0000e-01|  5.0000e-01|   -6.266874|   -6.389575|   -6.939257|   -6.638306|   -6.566355|   -8.970852|    2.050472|
|         175|  6.2093e+00|  4.4066e-09|  7.6965e-01|  5.0000e-01|  5.0000e-01|  5.0000e-01|   -6.266373|   -6.388970|   -6.938922|   -6.637816|   -6.565811|   -8.970565|    2.050465|
|         176|  6.2085e+00|  4.4065e-09|  7.6965e-01|  5.0000e-01|  5.0000e-01|  5.0000e-01|   -6.265874|   -6.388368|   -6.938589|   -6.637327|   -6.565269|   -8.970279|    2.050458|
|         177|  6.2078e+00|  4.4065e-09|  7.6965e-01|  5.0000e-01|  5.0000e-01|  5.0000e-01|   -6.265379|   -6.387768|   -6.938257|   -6.636841|   -6.564729|   -8.969994|    2.050451|
|         178|  6.2068e+00|  4.4064e-09|  7.6965e-01|  5.0000e-01|  5.0000e-01|  5.0000e-01|   -6.264886|   -6.387172|   -6.937926|   -6.636356|   -6.564191|   -8.969711|    2.050445|
|         179|  6.2052e+00|  4.4064e-09|  7.6965e-01|  5.0000e-01|  5.0000e-01|  5.0000e-01|   -6.264395|   -6.386579|   -6.937597|   -6.635874|   -6.563655|   -8.969428|    2.050438|
|         180|  6.2039e+00|  4.4064e-09|  7.6965e-01|  5.0000e-01|  5.0000e-01|  5.0000e-01|   -6.263907|   -6.385989|   -6.937270|   -6.635393|   -6.563122|   -8.969146|    2.050431|
|         181|  6.2025e+00|  4.4063e-09|  7.6965e-01|  5.0000e-01|  5.0000e-01|  5.0000e-01|   -6.263422|   -6.385403|   -6.936945|   -6.634915|   -6.562591|   -8.968865|    2.050425|
|         182|  6.2008e+00|  4.4063e-09|  7.6965e-01|  5.0000e-01|  5.0000e-01|  5.0000e-01|   -6.262940|   -6.384820|   -6.936621|   -6.634439|   -6.562063|   -8.968586|    2.050418|
|         183|  6.2000e+00|  4.4062e-09|  7.6965e-01|  5.0000e-01|  5.0000e-01|  5.0000e-01|   -6.262460|   -6.384240|   -6.936299|   -6.633965|   -6.561536|   -8.968307|    2.050412|
|         184|  6.1986e+00|  4.4062e-09|  7.6965e-01|  5.0000e-01|  5.0000e-01|  5.0000e-01|   -6.261983|   -6.383663|   -6.935978|   -6.633493|   -6.561012|   -8.968029|    2.050406|
|         185|  6.1977e+00|  4.4061e-09|  7.6965e-01|  5.0000e-01|  5.0000e-01|  5.0000e-01|   -6.261509|   -6.383089|   -6.935660|   -6.633023|   -6.560491|   -8.967752|    2.050400|
|         186|  6.1966e+00|  4.4061e-09|  7.6965e-01|  5.0000e-01|  5.0000e-01|  5.0000e-01|   -6.261037|   -6.382519|   -6.935343|   -6.632556|   -6.559972|   -8.967477|    2.050393|
|         187|  6.1956e+00|  4.4061e-09|  7.6965e-01|  5.0000e-01|  5.0000e-01|  5.0000e-01|   -6.260569|   -6.381952|   -6.935028|   -6.632091|   -6.559455|   -8.967202|    2.050387|
|         188|  6.1943e+00|  4.4060e-09|  7.6965e-01|  5.0000e-01|  5.0000e-01|  5.0000e-01|   -6.260103|   -6.381388|   -6.934715|   -6.631628|   -6.558941|   -8.966928|    2.050381|
|         189|  6.1934e+00|  4.4060e-09|  7.6965e-01|  5.0000e-01|  5.0000e-01|  5.0000e-01|   -6.259640|   -6.380828|   -6.934403|   -6.631167|   -6.558429|   -8.966655|    2.050375|
|         190|  6.1922e+00|  4.4059e-09|  7.6965e-01|  5.0000e-01|  5.0000e-01|  5.0000e-01|   -6.259180|   -6.380271|   -6.934093|   -6.630708|   -6.557920|   -8.966384|    2.050370|
|         191|  6.1911e+00|  4.4059e-09|  7.6965e-01|  5.0000e-01|  5.0000e-01|  5.0000e-01|   -6.258722|   -6.379717|   -6.933785|   -6.630251|   -6.557413|   -8.966113|    2.050364|
|         192|  6.1900e+00|  4.4058e-09|  7.6965e-01|  5.0000e-01|  5.0000e-01|  5.0000e-01|   -6.258268|   -6.379167|   -6.933478|   -6.629796|   -6.556908|   -8.965843|    2.050358|
|         193|  6.1889e+00|  4.4058e-09|  7.6965e-01|  5.0000e-01|  5.0000e-01|  5.0000e-01|   -6.257816|   -6.378620|   -6.933173|   -6.629343|   -6.556406|   -8.965575|    2.050353|
|         194|  6.1883e+00|  4.4058e-09|  7.6965e-01|  5.0000e-01|  5.0000e-01|  5.0000e-01|   -6.257367|   -6.378076|   -6.932870|   -6.628893|   -6.555906|   -8.965307|    2.050347|
|         195|  6.1876e+00|  4.4057e-09|  7.6965e-01|  5.0000e-01|  5.0000e-01|  5.0000e-01|   -6.256921|   -6.377535|   -6.932569|   -6.628445|   -6.555409|   -8.965040|    2.050342|
|         196|  6.1869e+00|  4.4057e-09|  7.6965e-01|  5.0000e-01|  5.0000e-01|  5.0000e-01|   -6.256478|   -6.376998|   -6.932269|   -6.627999|   -6.554914|   -8.964774|    2.050336|
|         197|  6.1857e+00|  4.4056e-09|  7.6965e-01|  5.0000e-01|  5.0000e-01|  5.0000e-01|   -6.256037|   -6.376465|   -6.931971|   -6.627556|   -6.554422|   -8.964509|    2.050331|
|         198|  6.1846e+00|  4.4056e-09|  7.6965e-01|  5.0000e-01|  5.0000e-01|  5.0000e-01|   -6.255599|   -6.375934|   -6.931674|   -6.627114|   -6.553931|   -8.964246|    2.050326|
|         199|  6.1842e+00|  4.4055e-09|  7.6965e-01|  5.0000e-01|  5.0000e-01|  5.0000e-01|   -6.255164|   -6.375407|   -6.931379|   -6.626675|   -6.553443|   -8.963983|    2.050321|
|         200|  6.1834e+00|  4.4055e-09|  7.6965e-01|  5.0000e-01|  5.0000e-01|  5.0000e-01|   -6.254731|   -6.374883|   -6.931085|   -6.626237|   -6.552958|   -8.963721|    2.050315|
|         201|  6.1821e+00|  4.4055e-09|  7.6965e-01|  5.0000e-01|  5.0000e-01|  5.0000e-01|   -6.254300|   -6.374363|   -6.930793|   -6.625802|   -6.552473|   -8.963460|    2.050310|
|         202|  6.1811e+00|  4.4054e-09|  7.6965e-01|  5.0000e-01|  5.0000e-01|  5.0000e-01|   -6.253872|   -6.373846|   -6.930502|   -6.625369|   -6.551991|   -8.963200|    2.050306|
|         203|  6.1802e+00|  4.4054e-09|  7.6965e-01|  5.0000e-01|  5.0000e-01|  5.0000e-01|   -6.253448|   -6.373332|   -6.930213|   -6.624937|   -6.551512|   -8.962941|    2.050301|
|         204|  6.1792e+00|  4.4053e-09|  7.6965e-01|  5.0000e-01|  5.0000e-01|  5.0000e-01|   -6.253026|   -6.372822|   -6.929926|   -6.624508|   -6.551036|   -8.962683|    2.050296|
|         205|  6.1784e+00|  4.4053e-09|  7.6965e-01|  5.0000e-01|  5.0000e-01|  5.0000e-01|   -6.252607|   -6.372315|   -6.929640|   -6.624081|   -6.550562|   -8.962426|    2.050291|
|         206|  6.1776e+00|  4.4052e-09|  7.6965e-01|  5.0000e-01|  5.0000e-01|  5.0000e-01|   -6.252190|   -6.371812|   -6.929356|   -6.623657|   -6.550091|   -8.962170|    2.050287|
|         207|  6.1766e+00|  4.4052e-09|  7.6965e-01|  5.0000e-01|  5.0000e-01|  5.0000e-01|   -6.251777|   -6.371312|   -6.929074|   -6.623234|   -6.549623|   -8.961915|    2.050282|
|         208|  6.1760e+00|  4.4052e-09|  7.6965e-01|  5.0000e-01|  5.0000e-01|  5.0000e-01|   -6.251367|   -6.370816|   -6.928794|   -6.622814|   -6.549157|   -8.961661|    2.050278|
|         209|  6.1752e+00|  4.4051e-09|  7.6965e-01|  5.0000e-01|  5.0000e-01|  5.0000e-01|   -6.250960|   -6.370323|   -6.928515|   -6.622397|   -6.548694|   -8.961408|    2.050273|
|         210|  6.1744e+00|  4.4051e-09|  7.6965e-01|  5.0000e-01|  5.0000e-01|  5.0000e-01|   -6.250556|   -6.369833|   -6.928240|   -6.621982|   -6.548234|   -8.961156|    2.050269|
|         211|  6.1735e+00|  4.4050e-09|  7.6965e-01|  5.0000e-01|  5.0000e-01|  5.0000e-01|   -6.250156|   -6.369347|   -6.927966|   -6.621570|   -6.547777|   -8.960904|    2.050265|
|         212|  6.1727e+00|  4.4050e-09|  7.6965e-01|  5.0000e-01|  5.0000e-01|  5.0000e-01|   -6.249758|   -6.368865|   -6.927694|   -6.621160|   -6.547322|   -8.960654|    2.050261|
|         213|  6.1716e+00|  4.4049e-09|  7.6965e-01|  5.0000e-01|  5.0000e-01|  5.0000e-01|   -6.249363|   -6.368386|   -6.927424|   -6.620753|   -6.546870|   -8.960405|    2.050257|
|         214|  6.1708e+00|  4.4049e-09|  7.6965e-01|  5.0000e-01|  5.0000e-01|  5.0000e-01|   -6.248971|   -6.367911|   -6.927156|   -6.620348|   -6.546421|   -8.960156|    2.050253|
|         215|  6.1698e+00|  4.4049e-09|  7.6965e-01|  5.0000e-01|  5.0000e-01|  5.0000e-01|   -6.248583|   -6.367440|   -6.926889|   -6.619946|   -6.545975|   -8.959909|    2.050249|
|         216|  6.1690e+00|  4.4048e-09|  7.6965e-01|  5.0000e-01|  5.0000e-01|  5.0000e-01|   -6.248197|   -6.366972|   -6.926624|   -6.619545|   -6.545531|   -8.959662|    2.050245|
|         217|  6.1684e+00|  4.4048e-09|  7.6965e-01|  5.0000e-01|  5.0000e-01|  5.0000e-01|   -6.247814|   -6.366507|   -6.926361|   -6.619148|   -6.545090|   -8.959416|    2.050241|
|         218|  6.1677e+00|  4.4047e-09|  7.6965e-01|  5.0000e-01|  5.0000e-01|  5.0000e-01|   -6.247435|   -6.366046|   -6.926100|   -6.618753|   -6.544652|   -8.959172|    2.050237|
|         219|  6.1668e+00|  4.4047e-09|  7.6965e-01|  5.0000e-01|  5.0000e-01|  5.0000e-01|   -6.247058|   -6.365588|   -6.925841|   -6.618360|   -6.544216|   -8.958928|    2.050234|
|         220|  6.1659e+00|  4.4046e-09|  7.6965e-01|  5.0000e-01|  5.0000e-01|  5.0000e-01|   -6.246684|   -6.365135|   -6.925584|   -6.617970|   -6.543783|   -8.958685|    2.050230|
|         221|  6.1648e+00|  4.4046e-09|  7.6965e-01|  5.0000e-01|  5.0000e-01|  5.0000e-01|   -6.246314|   -6.364685|   -6.925329|   -6.617582|   -6.543353|   -8.958443|    2.050227|
|         222|  6.1639e+00|  4.4046e-09|  7.6965e-01|  5.0000e-01|  5.0000e-01|  5.0000e-01|   -6.245946|   -6.364238|   -6.925076|   -6.617197|   -6.542926|   -8.958202|    2.050224|
|         223|  6.1630e+00|  4.4045e-09|  7.6965e-01|  5.0000e-01|  5.0000e-01|  5.0000e-01|   -6.245582|   -6.363795|   -6.924824|   -6.616814|   -6.542501|   -8.957962|    2.050220|
|         224|  6.1618e+00|  4.4045e-09|  7.6965e-01|  5.0000e-01|  5.0000e-01|  5.0000e-01|   -6.245220|   -6.363356|   -6.924574|   -6.616433|   -6.542078|   -8.957723|    2.050217|
|         225|  6.1608e+00|  4.4044e-09|  7.6965e-01|  5.0000e-01|  5.0000e-01|  5.0000e-01|   -6.244861|   -6.362920|   -6.924326|   -6.616056|   -6.541659|   -8.957484|    2.050214|
|         226|  6.1599e+00|  4.4044e-09|  7.6965e-01|  5.0000e-01|  5.0000e-01|  5.0000e-01|   -6.244505|   -6.362488|   -6.924081|   -6.615680|   -6.541242|   -8.957247|    2.050211|
|         227|  6.1591e+00|  4.4043e-09|  7.6965e-01|  5.0000e-01|  5.0000e-01|  5.0000e-01|   -6.244153|   -6.362059|   -6.923837|   -6.615308|   -6.540828|   -8.957010|    2.050208|
|         228|  6.1583e+00|  4.4043e-09|  7.6965e-01|  5.0000e-01|  5.0000e-01|  5.0000e-01|   -6.243803|   -6.361634|   -6.923595|   -6.614938|   -6.540417|   -8.956775|    2.050205|
|         229|  6.1573e+00|  4.4043e-09|  7.6965e-01|  5.0000e-01|  5.0000e-01|  5.0000e-01|   -6.243457|   -6.361213|   -6.923355|   -6.614570|   -6.540009|   -8.956540|    2.050202|
|         230|  6.1567e+00|  4.4042e-09|  7.6965e-01|  5.0000e-01|  5.0000e-01|  5.0000e-01|   -6.243114|   -6.360796|   -6.923117|   -6.614206|   -6.539604|   -8.956306|    2.050200|
|         231|  6.1561e+00|  4.4042e-09|  7.6965e-01|  5.0000e-01|  5.0000e-01|  5.0000e-01|   -6.242774|   -6.360382|   -6.922881|   -6.613845|   -6.539202|   -8.956073|    2.050197|
|         232|  6.1551e+00|  4.4041e-09|  7.6965e-01|  5.0000e-01|  5.0000e-01|  5.0000e-01|   -6.242438|   -6.359972|   -6.922647|   -6.613486|   -6.538802|   -8.955841|    2.050194|
|         233|  6.1546e+00|  4.4041e-09|  7.6965e-01|  5.0000e-01|  5.0000e-01|  5.0000e-01|   -6.242104|   -6.359566|   -6.922415|   -6.613130|   -6.538406|   -8.955610|    2.050192|
|         234|  6.1539e+00|  4.4040e-09|  7.6965e-01|  5.0000e-01|  5.0000e-01|  5.0000e-01|   -6.241774|   -6.359163|   -6.922184|   -6.612776|   -6.538013|   -8.955380|    2.050190|
|         235|  6.1531e+00|  4.4040e-09|  7.6965e-01|  5.0000e-01|  5.0000e-01|  5.0000e-01|   -6.241447|   -6.358765|   -6.921956|   -6.612426|   -6.537622|   -8.955150|    2.050187|
|         236|  6.1520e+00|  4.4040e-09|  7.6965e-01|  5.0000e-01|  5.0000e-01|  5.0000e-01|   -6.241123|   -6.358369|   -6.921730|   -6.612077|   -6.537235|   -8.954921|    2.050185|
|         237|  6.1512e+00|  4.4039e-09|  7.6965e-01|  5.0000e-01|  5.0000e-01|  5.0000e-01|   -6.240803|   -6.357978|   -6.921505|   -6.611732|   -6.536850|   -8.954694|    2.050183|
|         238|  6.1507e+00|  4.4039e-09|  7.6965e-01|  5.0000e-01|  5.0000e-01|  5.0000e-01|   -6.240486|   -6.357590|   -6.921283|   -6.611389|   -6.536468|   -8.954467|    2.050181|
|         239|  6.1500e+00|  4.4038e-09|  7.6965e-01|  5.0000e-01|  5.0000e-01|  5.0000e-01|   -6.240171|   -6.357206|   -6.921062|   -6.611049|   -6.536089|   -8.954241|    2.050179|
|         240|  6.1495e+00|  4.4038e-09|  7.6965e-01|  5.0000e-01|  5.0000e-01|  5.0000e-01|   -6.239860|   -6.356826|   -6.920843|   -6.610712|   -6.535713|   -8.954016|    2.050177|
|         241|  6.1490e+00|  4.4037e-09|  7.6965e-01|  5.0000e-01|  5.0000e-01|  5.0000e-01|   -6.239552|   -6.356450|   -6.920626|   -6.610377|   -6.535340|   -8.953791|    2.050175|
|         242|  6.1481e+00|  4.4037e-09|  7.6965e-01|  5.0000e-01|  5.0000e-01|  5.0000e-01|   -6.239247|   -6.356077|   -6.920411|   -6.610045|   -6.534970|   -8.953568|    2.050173|
|         243|  6.1474e+00|  4.4037e-09|  7.6965e-01|  5.0000e-01|  5.0000e-01|  5.0000e-01|   -6.238946|   -6.355708|   -6.920198|   -6.609717|   -6.534603|   -8.953345|    2.050172|
|         244|  6.1466e+00|  4.4036e-09|  7.6965e-01|  5.0000e-01|  5.0000e-01|  5.0000e-01|   -6.238648|   -6.355343|   -6.919987|   -6.609391|   -6.534239|   -8.953123|    2.050170|
|         245|  6.1459e+00|  4.4036e-09|  7.6965e-01|  5.0000e-01|  5.0000e-01|  5.0000e-01|   -6.238353|   -6.354982|   -6.919779|   -6.609067|   -6.533878|   -8.952902|    2.050169|
|         246|  6.1450e+00|  4.4035e-09|  7.6965e-01|  5.0000e-01|  5.0000e-01|  5.0000e-01|   -6.238061|   -6.354624|   -6.919572|   -6.608747|   -6.533520|   -8.952682|    2.050167|
|         247|  6.1446e+00|  4.4035e-09|  7.6965e-01|  5.0000e-01|  5.0000e-01|  5.0000e-01|   -6.237773|   -6.354271|   -6.919368|   -6.608429|   -6.533165|   -8.952463|    2.050166|
|         248|  6.1441e+00|  4.4034e-09|  7.6965e-01|  5.0000e-01|  5.0000e-01|  5.0000e-01|   -6.237487|   -6.353921|   -6.919165|   -6.608113|   -6.532812|   -8.952245|    2.050165|
|         249|  6.1433e+00|  4.4034e-09|  7.6965e-01|  5.0000e-01|  5.0000e-01|  5.0000e-01|   -6.237204|   -6.353575|   -6.918965|   -6.607801|   -6.532462|   -8.952027|    2.050164|
|         250|  6.1429e+00|  4.4034e-09|  7.6965e-01|  5.0000e-01|  5.0000e-01|  5.0000e-01|   -6.236925|   -6.353232|   -6.918766|   -6.607491|   -6.532116|   -8.951810|    2.050162|
|         251|  6.1420e+00|  4.4033e-09|  7.6965e-01|  5.0000e-01|  5.0000e-01|  5.0000e-01|   -6.236649|   -6.352894|   -6.918569|   -6.607184|   -6.531772|   -8.951594|    2.050161|
|         252|  6.1415e+00|  4.4033e-09|  7.6965e-01|  5.0000e-01|  5.0000e-01|  5.0000e-01|   -6.236376|   -6.352559|   -6.918374|   -6.606879|   -6.531431|   -8.951379|    2.050161|
|         253|  6.1416e+00|  4.4032e-09|  7.6965e-01|  5.0000e-01|  5.0000e-01|  5.0000e-01|   -6.236106|   -6.352227|   -6.918181|   -6.606578|   -6.531094|   -8.951165|    2.050160|
|         254|  6.1416e+00|  4.4032e-09|  7.6965e-01|  5.0000e-01|  5.0000e-01|  5.0000e-01|   -6.235840|   -6.351900|   -6.917990|   -6.606279|   -6.530760|   -8.950951|    2.050159|
|         255|  6.1408e+00|  4.4031e-09|  7.6965e-01|  5.0000e-01|  5.0000e-01|  5.0000e-01|   -6.235577|   -6.351576|   -6.917802|   -6.605984|   -6.530428|   -8.950738|    2.050158|
|         256|  6.1407e+00|  4.4031e-09|  7.6965e-01|  5.0000e-01|  5.0000e-01|  5.0000e-01|   -6.235317|   -6.351257|   -6.917615|   -6.605690|   -6.530099|   -8.950526|    2.050158|
|         257|  6.1402e+00|  4.4031e-09|  7.6965e-01|  5.0000e-01|  5.0000e-01|  5.0000e-01|   -6.235061|   -6.350941|   -6.917431|   -6.605400|   -6.529774|   -8.950315|    2.050157|
|         258|  6.1394e+00|  4.4030e-09|  7.6965e-01|  5.0000e-01|  5.0000e-01|  5.0000e-01|   -6.234808|   -6.350629|   -6.917249|   -6.605113|   -6.529452|   -8.950105|    2.050157|
|         259|  6.1389e+00|  4.4030e-09|  7.6965e-01|  5.0000e-01|  5.0000e-01|  5.0000e-01|   -6.234558|   -6.350320|   -6.917069|   -6.604828|   -6.529133|   -8.949895|    2.050157|
|         260|  6.1380e+00|  4.4029e-09|  7.6965e-01|  5.0000e-01|  5.0000e-01|  5.0000e-01|   -6.234312|   -6.350016|   -6.916892|   -6.604546|   -6.528817|   -8.949686|    2.050156|
|         261|  6.1374e+00|  4.4029e-09|  7.6965e-01|  5.0000e-01|  5.0000e-01|  5.0000e-01|   -6.234068|   -6.349715|   -6.916716|   -6.604267|   -6.528504|   -8.949479|    2.050156|
|         262|  6.1369e+00|  4.4028e-09|  7.6965e-01|  5.0000e-01|  5.0000e-01|  5.0000e-01|   -6.233828|   -6.349418|   -6.916542|   -6.603991|   -6.528194|   -8.949271|    2.050156|
|         263|  6.1364e+00|  4.4028e-09|  7.6965e-01|  5.0000e-01|  5.0000e-01|  5.0000e-01|   -6.233591|   -6.349124|   -6.916371|   -6.603717|   -6.527886|   -8.949065|    2.050156|
|         264|  6.1357e+00|  4.4028e-09|  7.6965e-01|  5.0000e-01|  5.0000e-01|  5.0000e-01|   -6.233358|   -6.348835|   -6.916202|   -6.603446|   -6.527582|   -8.948859|    2.050156|
|         265|  6.1351e+00|  4.4027e-09|  7.6965e-01|  5.0000e-01|  5.0000e-01|  5.0000e-01|   -6.233127|   -6.348549|   -6.916035|   -6.603179|   -6.527281|   -8.948655|    2.050156|
|         266|  6.1348e+00|  4.4027e-09|  7.6965e-01|  5.0000e-01|  5.0000e-01|  5.0000e-01|   -6.232900|   -6.348267|   -6.915870|   -6.602914|   -6.526983|   -8.948450|    2.050157|
|         267|  6.1341e+00|  4.4026e-09|  7.6965e-01|  5.0000e-01|  5.0000e-01|  5.0000e-01|   -6.232676|   -6.347988|   -6.915707|   -6.602652|   -6.526688|   -8.948247|    2.050157|
|         268|  6.1337e+00|  4.4026e-09|  7.6965e-01|  5.0000e-01|  5.0000e-01|  5.0000e-01|   -6.232456|   -6.347713|   -6.915546|   -6.602392|   -6.526396|   -8.948045|    2.050157|
|         269|  6.1333e+00|  4.4025e-09|  7.6965e-01|  5.0000e-01|  5.0000e-01|  5.0000e-01|   -6.232238|   -6.347442|   -6.915387|   -6.602135|   -6.526107|   -8.947843|    2.050158|
|         270|  6.1329e+00|  4.4025e-09|  7.6965e-01|  5.0000e-01|  5.0000e-01|  5.0000e-01|   -6.232024|   -6.347175|   -6.915231|   -6.601881|   -6.525820|   -8.947642|    2.050158|
|         271|  6.1323e+00|  4.4025e-09|  7.6965e-01|  5.0000e-01|  5.0000e-01|  5.0000e-01|   -6.231812|   -6.346911|   -6.915077|   -6.601630|   -6.525537|   -8.947442|    2.050159|
|         272|  6.1319e+00|  4.4024e-09|  7.6965e-01|  5.0000e-01|  5.0000e-01|  5.0000e-01|   -6.231604|   -6.346651|   -6.914925|   -6.601382|   -6.525257|   -8.947243|    2.050160|
|         273|  6.1316e+00|  4.4024e-09|  7.6965e-01|  5.0000e-01|  5.0000e-01|  5.0000e-01|   -6.231400|   -6.346395|   -6.914776|   -6.601136|   -6.524979|   -8.947044|    2.050161|
|         274|  6.1317e+00|  4.4023e-09|  7.6965e-01|  5.0000e-01|  5.0000e-01|  5.0000e-01|   -6.231198|   -6.346143|   -6.914628|   -6.600893|   -6.524705|   -8.946846|    2.050161|
|         275|  6.1319e+00|  4.4023e-09|  7.6965e-01|  5.0000e-01|  5.0000e-01|  5.0000e-01|   -6.231000|   -6.345894|   -6.914483|   -6.600653|   -6.524434|   -8.946649|    2.050162|
|         276|  6.1316e+00|  4.4023e-09|  7.6965e-01|  5.0000e-01|  5.0000e-01|  5.0000e-01|   -6.230805|   -6.345649|   -6.914340|   -6.600416|   -6.524165|   -8.946453|    2.050164|
|         277|  6.1314e+00|  4.4022e-09|  7.6965e-01|  5.0000e-01|  5.0000e-01|  5.0000e-01|   -6.230613|   -6.345409|   -6.914200|   -6.600183|   -6.523900|   -8.946257|    2.050165|
|         278|  6.1310e+00|  4.4022e-09|  7.6965e-01|  5.0000e-01|  5.0000e-01|  5.0000e-01|   -6.230425|   -6.345172|   -6.914062|   -6.599952|   -6.523638|   -8.946062|    2.050166|
|         279|  6.1305e+00|  4.4021e-09|  7.6965e-01|  5.0000e-01|  5.0000e-01|  5.0000e-01|   -6.230240|   -6.344938|   -6.913926|   -6.599723|   -6.523379|   -8.945868|    2.050167|
|         280|  6.1298e+00|  4.4021e-09|  7.6965e-01|  5.0000e-01|  5.0000e-01|  5.0000e-01|   -6.230058|   -6.344709|   -6.913792|   -6.599498|   -6.523123|   -8.945675|    2.050169|
|         281|  6.1288e+00|  4.4020e-09|  7.6965e-01|  5.0000e-01|  5.0000e-01|  5.0000e-01|   -6.229880|   -6.344484|   -6.913660|   -6.599276|   -6.522871|   -8.945482|    2.050170|
|         282|  6.1279e+00|  4.4020e-09|  7.6965e-01|  5.0000e-01|  5.0000e-01|  5.0000e-01|   -6.229705|   -6.344263|   -6.913531|   -6.599057|   -6.522621|   -8.945291|    2.050172|
|         283|  6.1275e+00|  4.4020e-09|  7.6965e-01|  5.0000e-01|  5.0000e-01|  5.0000e-01|   -6.229532|   -6.344046|   -6.913403|   -6.598840|   -6.522374|   -8.945100|    2.050174|
|         284|  6.1271e+00|  4.4019e-09|  7.6965e-01|  5.0000e-01|  5.0000e-01|  5.0000e-01|   -6.229363|   -6.343833|   -6.913278|   -6.598627|   -6.522130|   -8.944909|    2.050175|
|         285|  6.1267e+00|  4.4019e-09|  7.6965e-01|  5.0000e-01|  5.0000e-01|  5.0000e-01|   -6.229197|   -6.343623|   -6.913155|   -6.598416|   -6.521889|   -8.944720|    2.050177|
|         286|  6.1259e+00|  4.4018e-09|  7.6965e-01|  5.0000e-01|  5.0000e-01|  5.0000e-01|   -6.229033|   -6.343418|   -6.913033|   -6.598208|   -6.521650|   -8.944531|    2.050179|
|         287|  6.1253e+00|  4.4018e-09|  7.6965e-01|  5.0000e-01|  5.0000e-01|  5.0000e-01|   -6.228873|   -6.343216|   -6.912914|   -6.598002|   -6.521414|   -8.944343|    2.050181|
|         288|  6.1248e+00|  4.4017e-09|  7.6965e-01|  5.0000e-01|  5.0000e-01|  5.0000e-01|   -6.228717|   -6.343018|   -6.912797|   -6.597800|   -6.521182|   -8.944156|    2.050183|
|         289|  6.1242e+00|  4.4017e-09|  7.6965e-01|  5.0000e-01|  5.0000e-01|  5.0000e-01|   -6.228564|   -6.342825|   -6.912682|   -6.597600|   -6.520953|   -8.943969|    2.050185|
|         290|  6.1238e+00|  4.4017e-09|  7.6965e-01|  5.0000e-01|  5.0000e-01|  5.0000e-01|   -6.228414|   -6.342634|   -6.912569|   -6.597403|   -6.520728|   -8.943784|    2.050188|
|         291|  6.1232e+00|  4.4016e-09|  7.6965e-01|  5.0000e-01|  5.0000e-01|  5.0000e-01|   -6.228267|   -6.342448|   -6.912459|   -6.597209|   -6.520505|   -8.943598|    2.050190|
|         292|  6.1225e+00|  4.4016e-09|  7.6965e-01|  5.0000e-01|  5.0000e-01|  5.0000e-01|   -6.228124|   -6.342265|   -6.912350|   -6.597017|   -6.520285|   -8.943414|    2.050192|
|         293|  6.1220e+00|  4.4015e-09|  7.6965e-01|  5.0000e-01|  5.0000e-01|  5.0000e-01|   -6.227984|   -6.342087|   -6.912244|   -6.596828|   -6.520069|   -8.943231|    2.050195|
|         294|  6.1216e+00|  4.4015e-09|  7.6965e-01|  5.0000e-01|  5.0000e-01|  5.0000e-01|   -6.227848|   -6.341912|   -6.912139|   -6.596642|   -6.519856|   -8.943048|    2.050197|
|         295|  6.1212e+00|  4.4014e-09|  7.6965e-01|  5.0000e-01|  5.0000e-01|  5.0000e-01|   -6.227715|   -6.341741|   -6.912037|   -6.596459|   -6.519646|   -8.942866|    2.050200|
|         296|  6.1206e+00|  4.4014e-09|  7.6965e-01|  5.0000e-01|  5.0000e-01|  5.0000e-01|   -6.227587|   -6.341573|   -6.911936|   -6.596279|   -6.519441|   -8.942684|    2.050203|
|         297|  6.1198e+00|  4.4014e-09|  7.6965e-01|  5.0000e-01|  5.0000e-01|  5.0000e-01|   -6.227462|   -6.341410|   -6.911838|   -6.596101|   -6.519238|   -8.942504|    2.050206|
|         298|  6.1190e+00|  4.4013e-09|  7.6965e-01|  5.0000e-01|  5.0000e-01|  5.0000e-01|   -6.227340|   -6.341251|   -6.911742|   -6.595927|   -6.519039|   -8.942324|    2.050209|
|         299|  6.1186e+00|  4.4013e-09|  7.6965e-01|  5.0000e-01|  5.0000e-01|  5.0000e-01|   -6.227223|   -6.341095|   -6.911647|   -6.595757|   -6.518843|   -8.942145|    2.050212|
|         300|  6.1180e+00|  4.4012e-09|  7.6965e-01|  5.0000e-01|  5.0000e-01|  5.0000e-01|   -6.227108|   -6.340944|   -6.911555|   -6.595589|   -6.518650|   -8.941967|    2.050215|
+-----------------------------------------------------------------------+
|        File Writing Summary       |              Filename             |
+-----------------------------------------------------------------------+
|SU2 binary restart                 |restart_flow.dat                   |
|Paraview                           |flow.vtu                           |
|Paraview surface                   |surface_flow.vtu                   |
+-----------------------------------------------------------------------+
+-------------------------------------------------------------------------------------------------------------------------------------------------------------------------------------+
|  Inner_Iter|   Time(sec)|      Min DT|      Max DT|     Min CFL|     Max CFL|     Avg CFL|    rms[Rho]|   rms[RhoU]|   rms[RhoV]|   rms[RhoW]|   rms[RhoE]|     rms[nu]|          CD|
+-------------------------------------------------------------------------------------------------------------------------------------------------------------------------------------+
|         301|  6.1928e+00|  4.4012e-09|  7.6965e-01|  5.0000e-01|  5.0000e-01|  5.0000e-01|   -6.226997|   -6.340796|   -6.911465|   -6.595424|   -6.518461|   -8.941789|    2.050218|
|         302|  6.1949e+00|  4.4011e-09|  7.6965e-01|  5.0000e-01|  5.0000e-01|  5.0000e-01|   -6.226889|   -6.340653|   -6.911377|   -6.595262|   -6.518275|   -8.941612|    2.050221|
|         303|  6.1955e+00|  4.4011e-09|  7.6965e-01|  5.0000e-01|  5.0000e-01|  5.0000e-01|   -6.226786|   -6.340513|   -6.911292|   -6.595104|   -6.518093|   -8.941436|    2.050225|
|         304|  6.1958e+00|  4.4011e-09|  7.6965e-01|  5.0000e-01|  5.0000e-01|  5.0000e-01|   -6.226686|   -6.340377|   -6.911208|   -6.594949|   -6.517914|   -8.941260|    2.050228|
|         305|  6.1954e+00|  4.4010e-09|  7.6965e-01|  5.0000e-01|  5.0000e-01|  5.0000e-01|   -6.226590|   -6.340246|   -6.911127|   -6.594796|   -6.517739|   -8.941086|    2.050231|
|         306|  6.1952e+00|  4.4010e-09|  7.6965e-01|  5.0000e-01|  5.0000e-01|  5.0000e-01|   -6.226498|   -6.340118|   -6.911047|   -6.594647|   -6.517567|   -8.940912|    2.050235|
|         307|  6.1945e+00|  4.4009e-09|  7.6965e-01|  5.0000e-01|  5.0000e-01|  5.0000e-01|   -6.226409|   -6.339994|   -6.910970|   -6.594501|   -6.517398|   -8.940738|    2.050239|
|         308|  6.1936e+00|  4.4009e-09|  7.6965e-01|  5.0000e-01|  5.0000e-01|  5.0000e-01|   -6.226324|   -6.339874|   -6.910895|   -6.594358|   -6.517233|   -8.940566|    2.050243|
|         309|  6.1935e+00|  4.4008e-09|  7.6965e-01|  5.0000e-01|  5.0000e-01|  5.0000e-01|   -6.226242|   -6.339758|   -6.910822|   -6.594218|   -6.517071|   -8.940394|    2.050246|
|         310|  6.1928e+00|  4.4008e-09|  7.6965e-01|  5.0000e-01|  5.0000e-01|  5.0000e-01|   -6.226164|   -6.339646|   -6.910751|   -6.594082|   -6.516913|   -8.940223|    2.050250|
|         311|  6.1921e+00|  4.4008e-09|  7.6965e-01|  5.0000e-01|  5.0000e-01|  5.0000e-01|   -6.226090|   -6.339538|   -6.910682|   -6.593948|   -6.516757|   -8.940052|    2.050254|
|         312|  6.1914e+00|  4.4007e-09|  7.6965e-01|  5.0000e-01|  5.0000e-01|  5.0000e-01|   -6.226019|   -6.339434|   -6.910615|   -6.593818|   -6.516605|   -8.939883|    2.050258|
|         313|  6.1908e+00|  4.4007e-09|  7.6965e-01|  5.0000e-01|  5.0000e-01|  5.0000e-01|   -6.225952|   -6.339334|   -6.910551|   -6.593690|   -6.516457|   -8.939714|    2.050263|
|         314|  6.1902e+00|  4.4006e-09|  7.6965e-01|  5.0000e-01|  5.0000e-01|  5.0000e-01|   -6.225888|   -6.339238|   -6.910489|   -6.593566|   -6.516311|   -8.939546|    2.050267|
|         315|  6.1893e+00|  4.4006e-09|  7.6965e-01|  5.0000e-01|  5.0000e-01|  5.0000e-01|   -6.225828|   -6.339146|   -6.910429|   -6.593444|   -6.516169|   -8.939378|    2.050271|
|         316|  6.1886e+00|  4.4006e-09|  7.6965e-01|  5.0000e-01|  5.0000e-01|  5.0000e-01|   -6.225771|   -6.339058|   -6.910371|   -6.593325|   -6.516030|   -8.939211|    2.050276|
|         317|  6.1876e+00|  4.4005e-09|  7.6965e-01|  5.0000e-01|  5.0000e-01|  5.0000e-01|   -6.225718|   -6.338974|   -6.910315|   -6.593210|   -6.515895|   -8.939045|    2.050280|
|         318|  6.1868e+00|  4.4005e-09|  7.6965e-01|  5.0000e-01|  5.0000e-01|  5.0000e-01|   -6.225668|   -6.338894|   -6.910262|   -6.593098|   -6.515762|   -8.938880|    2.050285|
|         319|  6.1860e+00|  4.4004e-09|  7.6965e-01|  5.0000e-01|  5.0000e-01|  5.0000e-01|   -6.225622|   -6.338818|   -6.910211|   -6.592988|   -6.515633|   -8.938715|    2.050290|
|         320|  6.1853e+00|  4.4004e-09|  7.6965e-01|  5.0000e-01|  5.0000e-01|  5.0000e-01|   -6.225580|   -6.338745|   -6.910162|   -6.592882|   -6.515508|   -8.938551|    2.050294|
|         321|  6.1844e+00|  4.4003e-09|  7.6965e-01|  5.0000e-01|  5.0000e-01|  5.0000e-01|   -6.225540|   -6.338677|   -6.910115|   -6.592779|   -6.515385|   -8.938388|    2.050299|
|         322|  6.1836e+00|  4.4003e-09|  7.6965e-01|  5.0000e-01|  5.0000e-01|  5.0000e-01|   -6.225505|   -6.338613|   -6.910070|   -6.592679|   -6.515266|   -8.938225|    2.050304|
|         323|  6.1827e+00|  4.4003e-09|  7.6965e-01|  5.0000e-01|  5.0000e-01|  5.0000e-01|   -6.225472|   -6.338553|   -6.910027|   -6.592582|   -6.515149|   -8.938063|    2.050309|
|         324|  6.1819e+00|  4.4002e-09|  7.6965e-01|  5.0000e-01|  5.0000e-01|  5.0000e-01|   -6.225443|   -6.338497|   -6.909987|   -6.592489|   -6.515036|   -8.937902|    2.050314|
|         325|  6.1809e+00|  4.4002e-09|  7.6965e-01|  5.0000e-01|  5.0000e-01|  5.0000e-01|   -6.225418|   -6.338446|   -6.909948|   -6.592398|   -6.514926|   -8.937742|    2.050319|
|         326|  6.1800e+00|  4.4001e-09|  7.6965e-01|  5.0000e-01|  5.0000e-01|  5.0000e-01|   -6.225396|   -6.338398|   -6.909912|   -6.592310|   -6.514820|   -8.937582|    2.050325|
|         327|  6.1791e+00|  4.4001e-09|  7.6965e-01|  5.0000e-01|  5.0000e-01|  5.0000e-01|   -6.225377|   -6.338354|   -6.909878|   -6.592226|   -6.514716|   -8.937423|    2.050330|
|         328|  6.1786e+00|  4.4000e-09|  7.6965e-01|  5.0000e-01|  5.0000e-01|  5.0000e-01|   -6.225361|   -6.338315|   -6.909845|   -6.592144|   -6.514615|   -8.937265|    2.050336|
|         329|  6.1779e+00|  4.4000e-09|  7.6965e-01|  5.0000e-01|  5.0000e-01|  5.0000e-01|   -6.225349|   -6.338279|   -6.909815|   -6.592066|   -6.514518|   -8.937107|    2.050341|
|         330|  6.1771e+00|  4.4000e-09|  7.6965e-01|  5.0000e-01|  5.0000e-01|  5.0000e-01|   -6.225340|   -6.338248|   -6.909787|   -6.591991|   -6.514423|   -8.936950|    2.050347|
|         331|  6.1762e+00|  4.3999e-09|  7.6965e-01|  5.0000e-01|  5.0000e-01|  5.0000e-01|   -6.225334|   -6.338220|   -6.909760|   -6.591919|   -6.514332|   -8.936794|    2.050352|
|         332|  6.1753e+00|  4.3999e-09|  7.6965e-01|  5.0000e-01|  5.0000e-01|  5.0000e-01|   -6.225332|   -6.338197|   -6.909736|   -6.591850|   -6.514245|   -8.936639|    2.050358|
|         333|  6.1744e+00|  4.3998e-09|  7.6965e-01|  5.0000e-01|  5.0000e-01|  5.0000e-01|   -6.225334|   -6.338178|   -6.909714|   -6.591784|   -6.514160|   -8.936484|    2.050364|
|         334|  6.1738e+00|  4.3998e-09|  7.6965e-01|  5.0000e-01|  5.0000e-01|  5.0000e-01|   -6.225339|   -6.338163|   -6.909694|   -6.591722|   -6.514079|   -8.936330|    2.050370|
|         335|  6.1729e+00|  4.3997e-09|  7.6965e-01|  5.0000e-01|  5.0000e-01|  5.0000e-01|   -6.225348|   -6.338151|   -6.909676|   -6.591662|   -6.514002|   -8.936176|    2.050376|
|         336|  6.1719e+00|  4.3997e-09|  7.6965e-01|  5.0000e-01|  5.0000e-01|  5.0000e-01|   -6.225360|   -6.338144|   -6.909660|   -6.591606|   -6.513927|   -8.936024|    2.050382|
|         337|  6.1711e+00|  4.3997e-09|  7.6965e-01|  5.0000e-01|  5.0000e-01|  5.0000e-01|   -6.225376|   -6.338141|   -6.909646|   -6.591553|   -6.513856|   -8.935872|    2.050388|
|         338|  6.1703e+00|  4.3996e-09|  7.6965e-01|  5.0000e-01|  5.0000e-01|  5.0000e-01|   -6.225395|   -6.338143|   -6.909634|   -6.591503|   -6.513788|   -8.935720|    2.050395|
|         339|  6.1697e+00|  4.3996e-09|  7.6965e-01|  5.0000e-01|  5.0000e-01|  5.0000e-01|   -6.225417|   -6.338148|   -6.909624|   -6.591456|   -6.513723|   -8.935570|    2.050401|
|         340|  6.1690e+00|  4.3995e-09|  7.6965e-01|  5.0000e-01|  5.0000e-01|  5.0000e-01|   -6.225443|   -6.338157|   -6.909616|   -6.591412|   -6.513662|   -8.935420|    2.050408|
|         341|  6.1681e+00|  4.3995e-09|  7.6965e-01|  5.0000e-01|  5.0000e-01|  5.0000e-01|   -6.225472|   -6.338170|   -6.909610|   -6.591371|   -6.513603|   -8.935271|    2.050414|
|         342|  6.1673e+00|  4.3994e-09|  7.6965e-01|  5.0000e-01|  5.0000e-01|  5.0000e-01|   -6.225505|   -6.338188|   -6.909606|   -6.591334|   -6.513548|   -8.935122|    2.050421|
|         343|  6.1667e+00|  4.3994e-09|  7.6965e-01|  5.0000e-01|  5.0000e-01|  5.0000e-01|   -6.225541|   -6.338210|   -6.909603|   -6.591299|   -6.513496|   -8.934974|    2.050427|
|         344|  6.1657e+00|  4.3994e-09|  7.6965e-01|  5.0000e-01|  5.0000e-01|  5.0000e-01|   -6.225580|   -6.338235|   -6.909603|   -6.591268|   -6.513447|   -8.934827|    2.050434|
|         345|  6.1650e+00|  4.3993e-09|  7.6965e-01|  5.0000e-01|  5.0000e-01|  5.0000e-01|   -6.225623|   -6.338265|   -6.909604|   -6.591240|   -6.513401|   -8.934681|    2.050441|
|         346|  6.1644e+00|  4.3993e-09|  7.6965e-01|  5.0000e-01|  5.0000e-01|  5.0000e-01|   -6.225668|   -6.338299|   -6.909607|   -6.591214|   -6.513359|   -8.934535|    2.050448|
|         347|  6.1633e+00|  4.3992e-09|  7.6965e-01|  5.0000e-01|  5.0000e-01|  5.0000e-01|   -6.225718|   -6.338337|   -6.909612|   -6.591192|   -6.513319|   -8.934390|    2.050455|
|         348|  6.1625e+00|  4.3992e-09|  7.6965e-01|  5.0000e-01|  5.0000e-01|  5.0000e-01|   -6.225770|   -6.338379|   -6.909619|   -6.591173|   -6.513283|   -8.934246|    2.050462|
|         349|  6.1616e+00|  4.3992e-09|  7.6965e-01|  5.0000e-01|  5.0000e-01|  5.0000e-01|   -6.225827|   -6.338425|   -6.909627|   -6.591158|   -6.513251|   -8.934102|    2.050470|
[...]
|        3472|  6.1074e+00|  4.2759e-09|  7.6965e-01|  5.0000e-01|  5.0000e-01|  5.0000e-01|   -5.864512|   -5.978390|   -6.599744|   -6.203084|   -6.157312|   -8.812703|    2.044945|
|        3473|  6.1073e+00|  4.2759e-09|  7.6965e-01|  5.0000e-01|  5.0000e-01|  5.0000e-01|   -5.864338|   -5.978132|   -6.599604|   -6.202943|   -6.157072|   -8.812623|    2.044937|
|        3474|  6.1073e+00|  4.2759e-09|  7.6965e-01|  5.0000e-01|  5.0000e-01|  5.0000e-01|   -5.864168|   -5.977878|   -6.599466|   -6.202805|   -6.156835|   -8.812545|    2.044928|
|        3475|  6.1072e+00|  4.2758e-09|  7.6965e-01|  5.0000e-01|  5.0000e-01|  5.0000e-01|   -5.864002|   -5.977627|   -6.599330|   -6.202669|   -6.156601|   -8.812469|    2.044920|
|        3476|  6.1071e+00|  4.2758e-09|  7.6965e-01|  5.0000e-01|  5.0000e-01|  5.0000e-01|   -5.863838|   -5.977380|   -6.599196|   -6.202537|   -6.156370|   -8.812395|    2.044912|
|        3477|  6.1070e+00|  4.2758e-09|  7.6965e-01|  5.0000e-01|  5.0000e-01|  5.0000e-01|   -5.863678|   -5.977136|   -6.599064|   -6.202408|   -6.156142|   -8.812323|    2.044904|
|        3478|  6.1069e+00|  4.2757e-09|  7.6965e-01|  5.0000e-01|  5.0000e-01|  5.0000e-01|   -5.863521|   -5.976896|   -6.598933|   -6.202281|   -6.155916|   -8.812253|    2.044896|
|        3479|  6.1068e+00|  4.2757e-09|  7.6965e-01|  5.0000e-01|  5.0000e-01|  5.0000e-01|   -5.863367|   -5.976660|   -6.598804|   -6.202156|   -6.155693|   -8.812185|    2.044888|
|        3480|  6.1067e+00|  4.2757e-09|  7.6965e-01|  5.0000e-01|  5.0000e-01|  5.0000e-01|   -5.863216|   -5.976427|   -6.598677|   -6.202035|   -6.155473|   -8.812119|    2.044881|
|        3481|  6.1066e+00|  4.2756e-09|  7.6965e-01|  5.0000e-01|  5.0000e-01|  5.0000e-01|   -5.863068|   -5.976197|   -6.598552|   -6.201916|   -6.155257|   -8.812056|    2.044873|
|        3482|  6.1065e+00|  4.2756e-09|  7.6965e-01|  5.0000e-01|  5.0000e-01|  5.0000e-01|   -5.862924|   -5.975971|   -6.598429|   -6.201800|   -6.155042|   -8.811994|    2.044866|
|        3483|  6.1064e+00|  4.2756e-09|  7.6965e-01|  5.0000e-01|  5.0000e-01|  5.0000e-01|   -5.862783|   -5.975749|   -6.598308|   -6.201687|   -6.154831|   -8.811934|    2.044859|
|        3484|  6.1063e+00|  4.2755e-09|  7.6965e-01|  5.0000e-01|  5.0000e-01|  5.0000e-01|   -5.862645|   -5.975530|   -6.598188|   -6.201577|   -6.154623|   -8.811876|    2.044852|
|        3485|  6.1062e+00|  4.2755e-09|  7.6965e-01|  5.0000e-01|  5.0000e-01|  5.0000e-01|   -5.862510|   -5.975316|   -6.598071|   -6.201469|   -6.154418|   -8.811820|    2.044845|
|        3486|  6.1061e+00|  4.2755e-09|  7.6965e-01|  5.0000e-01|  5.0000e-01|  5.0000e-01|   -5.862378|   -5.975104|   -6.597955|   -6.201364|   -6.154215|   -8.811767|    2.044838|
|        3487|  6.1061e+00|  4.2754e-09|  7.6965e-01|  5.0000e-01|  5.0000e-01|  5.0000e-01|   -5.862249|   -5.974896|   -6.597841|   -6.201262|   -6.154015|   -8.811715|    2.044832|
|        3488|  6.1060e+00|  4.2754e-09|  7.6965e-01|  5.0000e-01|  5.0000e-01|  5.0000e-01|   -5.862124|   -5.974692|   -6.597729|   -6.201163|   -6.153818|   -8.811665|    2.044825|
|        3489|  6.1059e+00|  4.2753e-09|  7.6965e-01|  5.0000e-01|  5.0000e-01|  5.0000e-01|   -5.862001|   -5.974492|   -6.597618|   -6.201066|   -6.153624|   -8.811617|    2.044819|
|        3490|  6.1058e+00|  4.2753e-09|  7.6965e-01|  5.0000e-01|  5.0000e-01|  5.0000e-01|   -5.861882|   -5.974295|   -6.597510|   -6.200973|   -6.153433|   -8.811571|    2.044813|
|        3491|  6.1057e+00|  4.2753e-09|  7.6965e-01|  5.0000e-01|  5.0000e-01|  5.0000e-01|   -5.861766|   -5.974102|   -6.597403|   -6.200882|   -6.153245|   -8.811527|    2.044807|
|        3492|  6.1056e+00|  4.2752e-09|  7.6965e-01|  5.0000e-01|  5.0000e-01|  5.0000e-01|   -5.861653|   -5.973913|   -6.597299|   -6.200794|   -6.153060|   -8.811485|    2.044801|
|        3493|  6.1055e+00|  4.2752e-09|  7.6965e-01|  5.0000e-01|  5.0000e-01|  5.0000e-01|   -5.861544|   -5.973727|   -6.597195|   -6.200708|   -6.152877|   -8.811445|    2.044795|
|        3494|  6.1054e+00|  4.2752e-09|  7.6965e-01|  5.0000e-01|  5.0000e-01|  5.0000e-01|   -5.861438|   -5.973544|   -6.597095|   -6.200626|   -6.152698|   -8.811407|    2.044790|
|        3495|  6.1054e+00|  4.2751e-09|  7.6965e-01|  5.0000e-01|  5.0000e-01|  5.0000e-01|   -5.861334|   -5.973365|   -6.596996|   -6.200546|   -6.152521|   -8.811370|    2.044784|
|        3496|  6.1053e+00|  4.2751e-09|  7.6965e-01|  5.0000e-01|  5.0000e-01|  5.0000e-01|   -5.861234|   -5.973190|   -6.596899|   -6.200469|   -6.152347|   -8.811336|    2.044779|
|        3497|  6.1052e+00|  4.2751e-09|  7.6965e-01|  5.0000e-01|  5.0000e-01|  5.0000e-01|   -5.861137|   -5.973019|   -6.596804|   -6.200394|   -6.152176|   -8.811303|    2.044774|
|        3498|  6.1051e+00|  4.2750e-09|  7.6965e-01|  5.0000e-01|  5.0000e-01|  5.0000e-01|   -5.861043|   -5.972851|   -6.596711|   -6.200323|   -6.152007|   -8.811273|    2.044769|
|        3499|  6.1050e+00|  4.2750e-09|  7.6965e-01|  5.0000e-01|  5.0000e-01|  5.0000e-01|   -5.860952|   -5.972687|   -6.596620|   -6.200253|   -6.151842|   -8.811244|    2.044764|
|        3500|  6.1049e+00|  4.2750e-09|  7.6965e-01|  5.0000e-01|  5.0000e-01|  5.0000e-01|   -5.860865|   -5.972527|   -6.596530|   -6.200187|   -6.151680|   -8.811217|    2.044760|
|        3501|  6.1048e+00|  4.2749e-09|  7.6965e-01|  5.0000e-01|  5.0000e-01|  5.0000e-01|   -5.860781|   -5.972371|   -6.596443|   -6.200124|   -6.151521|   -8.811192|    2.044755|
|        3502|  6.1047e+00|  4.2749e-09|  7.6965e-01|  5.0000e-01|  5.0000e-01|  5.0000e-01|   -5.860700|   -5.972218|   -6.596357|   -6.200064|   -6.151365|   -8.811169|    2.044751|
|        3503|  6.1046e+00|  4.2748e-09|  7.6965e-01|  5.0000e-01|  5.0000e-01|  5.0000e-01|   -5.860623|   -5.972069|   -6.596273|   -6.200006|   -6.151212|   -8.811147|    2.044747|
|        3504|  6.1045e+00|  4.2748e-09|  7.6965e-01|  5.0000e-01|  5.0000e-01|  5.0000e-01|   -5.860549|   -5.971924|   -6.596192|   -6.199952|   -6.151062|   -8.811128|    2.044742|
|        3505|  6.1044e+00|  4.2748e-09|  7.6965e-01|  5.0000e-01|  5.0000e-01|  5.0000e-01|   -5.860479|   -5.971783|   -6.596113|   -6.199901|   -6.150916|   -8.811110|    2.044739|
|        3506|  6.1044e+00|  4.2747e-09|  7.6965e-01|  5.0000e-01|  5.0000e-01|  5.0000e-01|   -5.860412|   -5.971646|   -6.596035|   -6.199853|   -6.150772|   -8.811094|    2.044735|
|        3507|  6.1043e+00|  4.2747e-09|  7.6965e-01|  5.0000e-01|  5.0000e-01|  5.0000e-01|   -5.860348|   -5.971513|   -6.595960|   -6.199808|   -6.150632|   -8.811080|    2.044731|
|        3508|  6.1042e+00|  4.2747e-09|  7.6965e-01|  5.0000e-01|  5.0000e-01|  5.0000e-01|   -5.860289|   -5.971384|   -6.595888|   -6.199765|   -6.150495|   -8.811067|    2.044728|
|        3509|  6.1041e+00|  4.2746e-09|  7.6965e-01|  5.0000e-01|  5.0000e-01|  5.0000e-01|   -5.860232|   -5.971259|   -6.595817|   -6.199726|   -6.150362|   -8.811057|    2.044724|
|        3510|  6.1039e+00|  4.2746e-09|  7.6965e-01|  5.0000e-01|  5.0000e-01|  5.0000e-01|   -5.860179|   -5.971137|   -6.595747|   -6.199690|   -6.150231|   -8.811048|    2.044721|
|        3511|  6.1038e+00|  4.2746e-09|  7.6965e-01|  5.0000e-01|  5.0000e-01|  5.0000e-01|   -5.860129|   -5.971020|   -6.595680|   -6.199657|   -6.150104|   -8.811040|    2.044718|
|        3512|  6.1037e+00|  4.2745e-09|  7.6965e-01|  5.0000e-01|  5.0000e-01|  5.0000e-01|   -5.860082|   -5.970906|   -6.595614|   -6.199626|   -6.149979|   -8.811035|    2.044715|
|        3513|  6.1036e+00|  4.2745e-09|  7.6965e-01|  5.0000e-01|  5.0000e-01|  5.0000e-01|   -5.860039|   -5.970797|   -6.595550|   -6.199599|   -6.149858|   -8.811031|    2.044713|
|        3514|  6.1035e+00|  4.2745e-09|  7.6965e-01|  5.0000e-01|  5.0000e-01|  5.0000e-01|   -5.860000|   -5.970691|   -6.595488|   -6.199575|   -6.149740|   -8.811029|    2.044710|
|        3515|  6.1034e+00|  4.2744e-09|  7.6965e-01|  5.0000e-01|  5.0000e-01|  5.0000e-01|   -5.859964|   -5.970589|   -6.595428|   -6.199554|   -6.149626|   -8.811029|    2.044708|
|        3516|  6.1033e+00|  4.2744e-09|  7.6965e-01|  5.0000e-01|  5.0000e-01|  5.0000e-01|   -5.859932|   -5.970492|   -6.595369|   -6.199536|   -6.149515|   -8.811030|    2.044705|
|        3517|  6.1032e+00|  4.2743e-09|  7.6965e-01|  5.0000e-01|  5.0000e-01|  5.0000e-01|   -5.859903|   -5.970398|   -6.595313|   -6.199522|   -6.149407|   -8.811033|    2.044703|
|        3518|  6.1031e+00|  4.2743e-09|  7.6965e-01|  5.0000e-01|  5.0000e-01|  5.0000e-01|   -5.859877|   -5.970308|   -6.595258|   -6.199510|   -6.149302|   -8.811037|    2.044701|
|        3519|  6.1031e+00|  4.2743e-09|  7.6965e-01|  5.0000e-01|  5.0000e-01|  5.0000e-01|   -5.859855|   -5.970222|   -6.595204|   -6.199501|   -6.149200|   -8.811044|    2.044699|
|        3520|  6.1030e+00|  4.2742e-09|  7.6965e-01|  5.0000e-01|  5.0000e-01|  5.0000e-01|   -5.859837|   -5.970140|   -6.595153|   -6.199496|   -6.149103|   -8.811051|    2.044698|
|        3521|  6.1029e+00|  4.2742e-09|  7.6965e-01|  5.0000e-01|  5.0000e-01|  5.0000e-01|   -5.859822|   -5.970062|   -6.595103|   -6.199494|   -6.149008|   -8.811061|    2.044696|
|        3522|  6.1028e+00|  4.2742e-09|  7.6965e-01|  5.0000e-01|  5.0000e-01|  5.0000e-01|   -5.859810|   -5.969988|   -6.595055|   -6.199495|   -6.148916|   -8.811072|    2.044695|
|        3523|  6.1027e+00|  4.2741e-09|  7.6965e-01|  5.0000e-01|  5.0000e-01|  5.0000e-01|   -5.859802|   -5.969918|   -6.595008|   -6.199499|   -6.148827|   -8.811085|    2.044694|
|        3524|  6.1025e+00|  4.2741e-09|  7.6965e-01|  5.0000e-01|  5.0000e-01|  5.0000e-01|   -5.859797|   -5.969852|   -6.594964|   -6.199506|   -6.148742|   -8.811099|    2.044692|
|        3525|  6.1024e+00|  4.2741e-09|  7.6965e-01|  5.0000e-01|  5.0000e-01|  5.0000e-01|   -5.859796|   -5.969790|   -6.594921|   -6.199515|   -6.148660|   -8.811115|    2.044692|
|        3526|  6.1023e+00|  4.2740e-09|  7.6965e-01|  5.0000e-01|  5.0000e-01|  5.0000e-01|   -5.859797|   -5.969732|   -6.594880|   -6.199528|   -6.148580|   -8.811132|    2.044691|
|        3527|  6.1022e+00|  4.2740e-09|  7.6965e-01|  5.0000e-01|  5.0000e-01|  5.0000e-01|   -5.859803|   -5.969677|   -6.594840|   -6.199544|   -6.148504|   -8.811151|    2.044690|
|        3528|  6.1021e+00|  4.2740e-09|  7.6965e-01|  5.0000e-01|  5.0000e-01|  5.0000e-01|   -5.859811|   -5.969626|   -6.594802|   -6.199561|   -6.148431|   -8.811171|    2.044690|
|        3529|  6.1020e+00|  4.2739e-09|  7.6965e-01|  5.0000e-01|  5.0000e-01|  5.0000e-01|   -5.859821|   -5.969579|   -6.594765|   -6.199582|   -6.148360|   -8.811193|    2.044689|
|        3530|  6.1019e+00|  4.2739e-09|  7.6965e-01|  5.0000e-01|  5.0000e-01|  5.0000e-01|   -5.859835|   -5.969535|   -6.594730|   -6.199607|   -6.148292|   -8.811216|    2.044689|
|        3531|  6.1017e+00|  4.2739e-09|  7.6965e-01|  5.0000e-01|  5.0000e-01|  5.0000e-01|   -5.859853|   -5.969496|   -6.594697|   -6.199634|   -6.148228|   -8.811241|    2.044689|
|        3532|  6.1016e+00|  4.2738e-09|  7.6965e-01|  5.0000e-01|  5.0000e-01|  5.0000e-01|   -5.859874|   -5.969460|   -6.594666|   -6.199664|   -6.148166|   -8.811268|    2.044689|
|        3533|  6.1015e+00|  4.2738e-09|  7.6965e-01|  5.0000e-01|  5.0000e-01|  5.0000e-01|   -5.859898|   -5.969428|   -6.594636|   -6.199697|   -6.148108|   -8.811295|    2.044690|
|        3534|  6.1014e+00|  4.2737e-09|  7.6965e-01|  5.0000e-01|  5.0000e-01|  5.0000e-01|   -5.859925|   -5.969400|   -6.594609|   -6.199733|   -6.148053|   -8.811325|    2.044690|
|        3535|  6.1013e+00|  4.2737e-09|  7.6965e-01|  5.0000e-01|  5.0000e-01|  5.0000e-01|   -5.859956|   -5.969376|   -6.594583|   -6.199773|   -6.148001|   -8.811355|    2.044691|
|        3536|  6.1012e+00|  4.2737e-09|  7.6965e-01|  5.0000e-01|  5.0000e-01|  5.0000e-01|   -5.859991|   -5.969356|   -6.594560|   -6.199815|   -6.147953|   -8.811387|    2.044691|
|        3537|  6.1011e+00|  4.2736e-09|  7.6965e-01|  5.0000e-01|  5.0000e-01|  5.0000e-01|   -5.860029|   -5.969340|   -6.594538|   -6.199860|   -6.147908|   -8.811421|    2.044692|
|        3538|  6.1011e+00|  4.2736e-09|  7.6965e-01|  5.0000e-01|  5.0000e-01|  5.0000e-01|   -5.860070|   -5.969328|   -6.594519|   -6.199909|   -6.147866|   -8.811456|    2.044693|
|        3539|  6.1010e+00|  4.2736e-09|  7.6965e-01|  5.0000e-01|  5.0000e-01|  5.0000e-01|   -5.860115|   -5.969320|   -6.594502|   -6.199961|   -6.147828|   -8.811492|    2.044695|
|        3540|  6.1009e+00|  4.2735e-09|  7.6965e-01|  5.0000e-01|  5.0000e-01|  5.0000e-01|   -5.860164|   -5.969316|   -6.594487|   -6.200017|   -6.147794|   -8.811530|    2.044696|
|        3541|  6.1008e+00|  4.2735e-09|  7.6965e-01|  5.0000e-01|  5.0000e-01|  5.0000e-01|   -5.860216|   -5.969316|   -6.594474|   -6.200076|   -6.147762|   -8.811568|    2.044698|
|        3542|  6.1007e+00|  4.2735e-09|  7.6965e-01|  5.0000e-01|  5.0000e-01|  5.0000e-01|   -5.860271|   -5.969321|   -6.594463|   -6.200138|   -6.147734|   -8.811609|    2.044699|
|        3543|  6.1006e+00|  4.2734e-09|  7.6965e-01|  5.0000e-01|  5.0000e-01|  5.0000e-01|   -5.860330|   -5.969329|   -6.594453|   -6.200202|   -6.147709|   -8.811650|    2.044701|
|        3544|  6.1005e+00|  4.2734e-09|  7.6965e-01|  5.0000e-01|  5.0000e-01|  5.0000e-01|   -5.860392|   -5.969341|   -6.594446|   -6.200270|   -6.147687|   -8.811693|    2.044703|
|        3545|  6.1004e+00|  4.2734e-09|  7.6965e-01|  5.0000e-01|  5.0000e-01|  5.0000e-01|   -5.860457|   -5.969357|   -6.594441|   -6.200341|   -6.147669|   -8.811737|    2.044705|
|        3546|  6.1003e+00|  4.2733e-09|  7.6965e-01|  5.0000e-01|  5.0000e-01|  5.0000e-01|   -5.860526|   -5.969377|   -6.594437|   -6.200416|   -6.147654|   -8.811782|    2.044708|
|        3547|  6.1002e+00|  4.2733e-09|  7.6965e-01|  5.0000e-01|  5.0000e-01|  5.0000e-01|   -5.860599|   -5.969401|   -6.594436|   -6.200493|   -6.147642|   -8.811829|    2.044710|
|        3548|  6.1001e+00|  4.2732e-09|  7.6965e-01|  5.0000e-01|  5.0000e-01|  5.0000e-01|   -5.860675|   -5.969429|   -6.594436|   -6.200573|   -6.147634|   -8.811877|    2.044713|
|        3549|  6.1000e+00|  4.2732e-09|  7.6965e-01|  5.0000e-01|  5.0000e-01|  5.0000e-01|   -5.860754|   -5.969461|   -6.594439|   -6.200657|   -6.147628|   -8.811926|    2.044715|
|        3550|  6.0999e+00|  4.2732e-09|  7.6965e-01|  5.0000e-01|  5.0000e-01|  5.0000e-01|   -5.860837|   -5.969497|   -6.594444|   -6.200743|   -6.147626|   -8.811976|    2.044718|
|        3551|  6.0998e+00|  4.2731e-09|  7.6965e-01|  5.0000e-01|  5.0000e-01|  5.0000e-01|   -5.860923|   -5.969536|   -6.594450|   -6.200833|   -6.147627|   -8.812028|    2.044721|
|        3552|  6.0998e+00|  4.2731e-09|  7.6965e-01|  5.0000e-01|  5.0000e-01|  5.0000e-01|   -5.861013|   -5.969579|   -6.594458|   -6.200925|   -6.147631|   -8.812080|    2.044725|
|        3553|  6.0997e+00|  4.2731e-09|  7.6965e-01|  5.0000e-01|  5.0000e-01|  5.0000e-01|   -5.861105|   -5.969626|   -6.594468|   -6.201019|   -6.147638|   -8.812134|    2.044728|
|        3554|  6.0996e+00|  4.2730e-09|  7.6965e-01|  5.0000e-01|  5.0000e-01|  5.0000e-01|   -5.861200|   -5.969676|   -6.594480|   -6.201117|   -6.147648|   -8.812189|    2.044732|
|        3555|  6.0995e+00|  4.2730e-09|  7.6965e-01|  5.0000e-01|  5.0000e-01|  5.0000e-01|   -5.861299|   -5.969731|   -6.594495|   -6.201218|   -6.147661|   -8.812245|    2.044735|
|        3556|  6.0994e+00|  4.2730e-09|  7.6965e-01|  5.0000e-01|  5.0000e-01|  5.0000e-01|   -5.861401|   -5.969789|   -6.594511|   -6.201322|   -6.147678|   -8.812302|    2.044739|
|        3557|  6.0994e+00|  4.2729e-09|  7.6965e-01|  5.0000e-01|  5.0000e-01|  5.0000e-01|   -5.861507|   -5.969851|   -6.594529|   -6.201429|   -6.147697|   -8.812360|    2.044743|
|        3558|  6.0993e+00|  4.2729e-09|  7.6965e-01|  5.0000e-01|  5.0000e-01|  5.0000e-01|   -5.861616|   -5.969917|   -6.594548|   -6.201538|   -6.147720|   -8.812420|    2.044747|
|        3559|  6.0992e+00|  4.2729e-09|  7.6965e-01|  5.0000e-01|  5.0000e-01|  5.0000e-01|   -5.861729|   -5.969986|   -6.594570|   -6.201651|   -6.147746|   -8.812480|    2.044752|
|        3560|  6.0991e+00|  4.2728e-09|  7.6965e-01|  5.0000e-01|  5.0000e-01|  5.0000e-01|   -5.861845|   -5.970059|   -6.594593|   -6.201766|   -6.147776|   -8.812541|    2.044756|
|        3561|  6.0990e+00|  4.2728e-09|  7.6965e-01|  5.0000e-01|  5.0000e-01|  5.0000e-01|   -5.861964|   -5.970136|   -6.594618|   -6.201884|   -6.147808|   -8.812604|    2.044761|
|        3562|  6.0989e+00|  4.2728e-09|  7.6965e-01|  5.0000e-01|  5.0000e-01|  5.0000e-01|   -5.862086|   -5.970216|   -6.594645|   -6.202005|   -6.147843|   -8.812667|    2.044766|
|        3563|  6.0988e+00|  4.2727e-09|  7.6965e-01|  5.0000e-01|  5.0000e-01|  5.0000e-01|   -5.862211|   -5.970301|   -6.594674|   -6.202128|   -6.147881|   -8.812731|    2.044771|
|        3564|  6.0987e+00|  4.2727e-09|  7.6965e-01|  5.0000e-01|  5.0000e-01|  5.0000e-01|   -5.862340|   -5.970389|   -6.594705|   -6.202254|   -6.147922|   -8.812797|    2.044776|
|        3565|  6.0986e+00|  4.2726e-09|  7.6965e-01|  5.0000e-01|  5.0000e-01|  5.0000e-01|   -5.862471|   -5.970480|   -6.594738|   -6.202383|   -6.147966|   -8.812863|    2.044781|
|        3566|  6.0985e+00|  4.2726e-09|  7.6965e-01|  5.0000e-01|  5.0000e-01|  5.0000e-01|   -5.862607|   -5.970576|   -6.594772|   -6.202515|   -6.148014|   -8.812930|    2.044787|
|        3567|  6.0984e+00|  4.2726e-09|  7.6965e-01|  5.0000e-01|  5.0000e-01|  5.0000e-01|   -5.862745|   -5.970675|   -6.594809|   -6.202650|   -6.148064|   -8.812998|    2.044792|
|        3568|  6.0983e+00|  4.2725e-09|  7.6965e-01|  5.0000e-01|  5.0000e-01|  5.0000e-01|   -5.862887|   -5.970778|   -6.594848|   -6.202788|   -6.148118|   -8.813067|    2.044798|
|        3569|  6.0982e+00|  4.2725e-09|  7.6965e-01|  5.0000e-01|  5.0000e-01|  5.0000e-01|   -5.863032|   -5.970884|   -6.594888|   -6.202928|   -6.148174|   -8.813137|    2.044804|
|        3570|  6.0981e+00|  4.2725e-09|  7.6965e-01|  5.0000e-01|  5.0000e-01|  5.0000e-01|   -5.863181|   -5.970994|   -6.594930|   -6.203072|   -6.148234|   -8.813208|    2.044810|
|        3571|  6.0980e+00|  4.2724e-09|  7.6965e-01|  5.0000e-01|  5.0000e-01|  5.0000e-01|   -5.863333|   -5.971108|   -6.594974|   -6.203218|   -6.148297|   -8.813280|    2.044817|
|        3572|  6.0978e+00|  4.2724e-09|  7.6965e-01|  5.0000e-01|  5.0000e-01|  5.0000e-01|   -5.863488|   -5.971226|   -6.595021|   -6.203368|   -6.148362|   -8.813352|    2.044823|
|        3573|  6.0977e+00|  4.2724e-09|  7.6965e-01|  5.0000e-01|  5.0000e-01|  5.0000e-01|   -5.863646|   -5.971347|   -6.595068|   -6.203520|   -6.148431|   -8.813425|    2.044830|
|        3574|  6.0977e+00|  4.2723e-09|  7.6965e-01|  5.0000e-01|  5.0000e-01|  5.0000e-01|   -5.863807|   -5.971472|   -6.595118|   -6.203674|   -6.148503|   -8.813499|    2.044836|
|        3575|  6.0976e+00|  4.2723e-09|  7.6965e-01|  5.0000e-01|  5.0000e-01|  5.0000e-01|   -5.863972|   -5.971601|   -6.595170|   -6.203832|   -6.148577|   -8.813574|    2.044843|
|        3576|  6.0974e+00|  4.2723e-09|  7.6965e-01|  5.0000e-01|  5.0000e-01|  5.0000e-01|   -5.864140|   -5.971734|   -6.595223|   -6.203993|   -6.148655|   -8.813650|    2.044850|
|        3577|  6.0973e+00|  4.2722e-09|  7.6965e-01|  5.0000e-01|  5.0000e-01|  5.0000e-01|   -5.864311|   -5.971870|   -6.595279|   -6.204156|   -6.148735|   -8.813726|    2.044858|
|        3578|  6.0972e+00|  4.2722e-09|  7.6965e-01|  5.0000e-01|  5.0000e-01|  5.0000e-01|   -5.864485|   -5.972010|   -6.595336|   -6.204322|   -6.148819|   -8.813803|    2.044865|
|        3579|  6.0972e+00|  4.2722e-09|  7.6965e-01|  5.0000e-01|  5.0000e-01|  5.0000e-01|   -5.864662|   -5.972153|   -6.595395|   -6.204490|   -6.148905|   -8.813881|    2.044872|
