Nodes: tri[0081,0105]
Tasks: 128
NPN:   64

-------------------------------------------------------------------------
|    ___ _   _ ___                                                      |
|   / __| | | |_  )   Release 7.5.1 "Blackbird"                         |
|   \__ \ |_| |/ /                                                      |
|   |___/\___//___|   Suite (Computational Fluid Dynamics Code)         |
|                                                                       |
-------------------------------------------------------------------------
| SU2 Project Website: https://su2code.github.io                        |
|                                                                       |
| The SU2 Project is maintained by the SU2 Foundation                   |
| (http://su2foundation.org)                                            |
-------------------------------------------------------------------------
| Copyright 2012-2023, SU2 Contributors                                 |
|                                                                       |
| SU2 is free software; you can redistribute it and/or                  |
| modify it under the terms of the GNU Lesser General Public            |
| License as published by the Free Software Foundation; either          |
| version 2.1 of the License, or (at your option) any later version.    |
|                                                                       |
| SU2 is distributed in the hope that it will be useful,                |
| but WITHOUT ANY WARRANTY; without even the implied warranty of        |
| MERCHANTABILITY or FITNESS FOR A PARTICULAR PURPOSE. See the GNU      |
| Lesser General Public License for more details.                       |
|                                                                       |
| You should have received a copy of the GNU Lesser General Public      |
| License along with SU2. If not, see <http://www.gnu.org/licenses/>.   |
-------------------------------------------------------------------------

Parsing config file for zone 0

----------------- Physical Case Definition ( Zone 0 ) -------------------
Compressible RANS equations.
Turbulence model: Spalart-Allmaras-noft2
Hybrid RANS/LES: No Hybrid RANS/LES
Mach number: 6.
Angle of attack (AoA): 24 deg, and angle of sideslip (AoS): 0 deg.
Reynolds number: 6.86229e+08. Reference length 5.
Reading and writing binary SU2 native restart files.
Read flow solution from: restart_flow.dat.
Non-Dimensional simulation (V=1.0, Rho=1.0, T=1.0 at the farfield).
The reference area will be computed using y(2D) or z(3D) projection.
The semi-span will be computed using the max y(3D) value.
The reference length is 0.64607 m.
Reference origin for moment evaluation is (0.25, 0, 0).
Surface(s) where the force coefficients are evaluated: ORION_SURFACE.

Input mesh file name: fine.su2

--------------- Space Numerical Integration ( Zone 0 ) ------------------
Jameson-Schmidt-Turkel scheme (2nd order in space) for the flow inviscid terms.
JST viscous coefficients (2nd & 4th): 0.5, 0.02.
The method includes a grid stretching correction (p = 0.3).
Scalar upwind solver for the turbulence model.
First order integration in space.
Average of gradients with correction (viscous flow terms).
Average of gradients with correction (viscous turbulence terms).
Gradient for upwind reconstruction: Green-Gauss.
Gradient for viscous and source terms: Green-Gauss.

--------------- Time Numerical Integration  ( Zone 0 ) ------------------
Local time stepping (steady state simulation).
Euler implicit method for the flow equations.
FGMRES is used for solving the linear system.
Using a ILU(0) preconditioning.
Convergence criteria of the linear solver: 1e-06.
Max number of linear iterations: 100.
CFL adaptation. Factor down: 0.5, factor up: 1.1,
                lower limit: 0.05, upper limit: 0.5,
                acceptable linear residual: 0.001.
Courant-Friedrichs-Lewy number:     0.03
Euler implicit time integration for the turbulence model.

------------------ Convergence Criteria  ( Zone 0 ) ---------------------
Maximum number of solver subiterations: 999999.
Begin convergence monitoring at iteration 5.
Residual minimum value: 1e-8.
Cauchy series min. value: 1e-10.
Number of Cauchy elements: 100.
Begin windowed time average at iteration 0.

-------------------- Output Information ( Zone 0 ) ----------------------
File writing frequency: 
+------------------------------------+
|                     File| Frequency|
+------------------------------------+
|                  RESTART|       150|
|                 PARAVIEW|       150|
|         SURFACE_PARAVIEW|       150|
+------------------------------------+
Writing the convergence history file every 1 inner iterations.
Writing the screen convergence history every 1 inner iterations.
The tabular file format is CSV (.csv).
Convergence history file name: history.
Forces breakdown file name: forces_breakdown.dat.
Surface file name: surface_flow.
Volume file name: flow.
Restart file name: restart_flow.

------------- Config File Boundary Information ( Zone 0 ) ---------------
+-----------------------------------------------------------------------+
|                        Marker Type|                        Marker Name|
+-----------------------------------------------------------------------+
|                          Far-field|                           FARFIELD|
+-----------------------------------------------------------------------+
|                     Heat flux wall|                      ORION_SURFACE|
+-----------------------------------------------------------------------+

-------------------- Output Preprocessing ( Zone 0 ) --------------------

WARNING: SURFACE_PRESSURE_DROP can only be computed for at least 2 surfaces (outlet, inlet, ...)

Screen output fields: INNER_ITER, WALL_TIME, MIN_DELTA_TIME, MAX_DELTA_TIME, MIN_CFL, MAX_CFL, AVG_CFL, RMS_DENSITY, RMS_MOMENTUM-X, RMS_MOMENTUM-Y, RMS_MOMENTUM-Z, RMS_ENERGY, RMS_NU_TILDE, DRAG
History output group(s): ITER, RMS_RES
Convergence field(s): RMS_DENSITY
Warning: No (valid) fields chosen for time convergence monitoring. Time convergence monitoring inactive.
Volume output fields: MACH, PRESSURE, TEMPERATURE, DENSITY, HEAT_FLUX, Y_PLUS, COORDINATES, SOLUTION

------------------- Geometry Preprocessing ( Zone 0 ) -------------------
Three dimensional problem.
62211324 grid points before partitioning.
190879888 volume elements before partitioning.
2 surface markers.
4104 boundary elements in index 0 (Marker = FARFIELD).
1824836 boundary elements in index 1 (Marker = ORION_SURFACE).
Executing the partitioning functions.
Building the graph adjacency structure.
Calling ParMETIS... graph partitioning complete (4959327 edge cuts).
Distributing ParMETIS coloring.
Rebalancing vertices.
Rebalancing volume element connectivity.
Rebalancing markers and surface elements.
66952290 vertices including ghost points. 
197997438 interior elements including halo cells. 
103171259 tetrahedra.
94500655 prisms.
325524 pyramids.
Establishing MPI communication patterns.
Setting point connectivity.
Renumbering points (Reverse Cuthill McKee Ordering).
Recomputing point connectivity.
Setting element connectivity.
Checking the numerical grid orientation.
All volume elements are correctly orientend.
All surface elements are correctly orientend.
Identifying edges and vertices.
Setting the control volume structure.
Volume of the computational grid: 535693.
Searching for the closest normal neighbors to the surfaces.
Storing a mapping from global to local point index.
Compute the surface curvature.
Max K: 132.896. Mean K: 3.9104. Standard deviation K: 7.49569.
Checking for periodicity.
Computing mesh quality statistics for the dual control volumes.
+--------------------------------------------------------------+
|           Mesh Quality Metric|        Minimum|        Maximum|
+--------------------------------------------------------------+
|    Orthogonality Angle (deg.)|        53.0661|             90|
|     CV Face Area Aspect Ratio|        1.01143|        75298.5|
|           CV Sub-Volume Ratio|        1.00029|        45.0258|
+--------------------------------------------------------------+
Finding max control volume width.
Communicating number of neighbors.
Reference area = 11.531 m^2.
Semi-span length = 2.49999 m.
Wetted area = 57.9072 m^2.
Area projection in the x-plane = 19.6343 m^2, y-plane = 11.531 m^2, z-plane = 11.531 m^2.
Max. coordinate in the x-direction = 2.575 m, y-direction = 2.49999 m, z-direction = 2.49999 m.
Min. coordinate in the x-direction = -0.71 m, y-direction = -2.49999 m, z-direction = -2.5 m.
Computing wall distances.

-------------------- Solver Preprocessing ( Zone 0 ) --------------------
Viscous flow: Computing pressure using the ideal gas law
based on the free-stream temperature and a density computed
from the Reynolds number.
Force coefficients computed using free-stream values.

-- Models:
+------------------------------------------------------------------------------+
|          Viscosity Model|        Conductivity Model|              Fluid Model|
+------------------------------------------------------------------------------+
|               SUTHERLAND|          CONSTANT_PRANDTL|             STANDARD_AIR|
+------------------------------------------------------------------------------+
-- Fluid properties:
+------------------------------------------------------------------------------+
|                  Name|    Dim. value|    Ref. value|      Unit|Non-dim. value|
+------------------------------------------------------------------------------+
|        Ref. Viscosity|     1.716e-05|       2455.73|   N.s/m^2|   6.98773e-09|
|      Sutherland Temp.|        273.15|        288.15|         K|      0.947944|
|     Sutherland Const.|         110.4|        288.15|         K|      0.383134|
+------------------------------------------------------------------------------+
|        Prandtl (Lam.)|             -|             -|         -|          0.72|
|       Prandtl (Turb.)|             -|             -|         -|           0.9|
+------------------------------------------------------------------------------+
|          Gas Constant|       287.058|       14467.7|  N.m/kg.K|     0.0198413|
|      Spec. Heat Ratio|             -|             -|         -|           1.4|
+------------------------------------------------------------------------------+
-- Initial and free-stream conditions:
+------------------------------------------------------------------------------+
|                  Name|    Dim. value|    Ref. value|      Unit|Non-dim. value|
+------------------------------------------------------------------------------+
|       Static Pressure|       99485.6|   5.01407e+06|        Pa|     0.0198413|
|               Density|       1.20274|       1.20274|    kg/m^3|             1|
|           Temperature|        288.15|        288.15|         K|             1|
|          Total Energy|   2.29123e+06|   4.16887e+06|   m^2/s^2|      0.549603|
|            Velocity-X|       1865.26|       2041.78|       m/s|      0.913545|
|            Velocity-Y|             0|       2041.78|       m/s|             0|
|            Velocity-Z|       830.468|       2041.78|       m/s|      0.406737|
|    Velocity Magnitude|       2041.78|       2041.78|       m/s|             1|
+------------------------------------------------------------------------------+
|             Viscosity|    1.7893e-05|       2455.73|   N.s/m^2|    7.2862e-09|
|          Conductivity|             -|   3.55289e+07|   W/m^2.K|             -|
|     Turb. Kin. Energy|       15633.3|   4.16887e+06|   m^2/s^2|       0.00375|
|     Spec. Dissipation|   1.05085e+08|       2041.78|       1/s|       51467.1|
+------------------------------------------------------------------------------+
|           Mach Number|             -|             -|         -|             6|
|       Reynolds Number|             -|             -|         -|   6.86229e+08|
+------------------------------------------------------------------------------+
Initialize Jacobian structure (Navier-Stokes). MG level: 0.
Initialize Jacobian structure (SA model).

------------------- Numerics Preprocessing ( Zone 0 ) -------------------

----------------- Integration Preprocessing ( Zone 0 ) ------------------

------------------- Iteration Preprocessing ( Zone 0 ) ------------------
Euler/Navier-Stokes/RANS fluid iteration.

------------------------------ Begin Solver -----------------------------

Simulation Run using the Single-zone Driver
WARNING: SU2 was not compiled for an AVX-capable architecture. Performance could be better,
         see https://su2code.github.io/docs_v7/Build-SU2-Linux-MacOS/#compiler-optimizations
+-------------------------------------------------------------------------------------------------------------------------------------------------------------------------------------+
|  Inner_Iter|   Time(sec)|      Min DT|      Max DT|     Min CFL|     Max CFL|     Avg CFL|    rms[Rho]|   rms[RhoU]|   rms[RhoV]|   rms[RhoW]|   rms[RhoE]|     rms[nu]|          CD|
+-------------------------------------------------------------------------------------------------------------------------------------------------------------------------------------+
|           0|  3.2103e+01|  2.5628e-10|  4.6179e-02|  5.0000e-02|  5.0000e-02|  5.0000e-02|   -5.869365|   -5.976246|   -6.597163|   -6.208914|   -6.151550|   -8.816870|    2.045069|
|           1|  1.9343e+01|  4.2714e-10|  7.6965e-02|  5.5000e-02|  5.5000e-02|  5.5000e-02|   -5.869420|   -5.976288|   -6.597230|   -6.208972|   -6.151624|   -8.816824|    2.045070|
|           2|  1.4942e+01|  4.6985e-10|  8.4662e-02|  6.0500e-02|  6.0500e-02|  6.0500e-02|   -5.869507|   -5.976356|   -6.597336|   -6.209067|   -6.151741|   -8.816817|    2.045071|
|           3|  1.2751e+01|  5.1684e-10|  9.3128e-02|  6.6550e-02|  6.6550e-02|  6.6550e-02|   -5.869602|   -5.976430|   -6.597450|   -6.209169|   -6.151868|   -8.816810|    2.045072|
|           4|  1.1476e+01|  5.6852e-10|  1.0244e-01|  7.3205e-02|  7.3205e-02|  7.3205e-02|   -5.869705|   -5.976512|   -6.597573|   -6.209280|   -6.152005|   -8.816802|    2.045074|
|           5|  1.0597e+01|  6.2537e-10|  1.1269e-01|  8.0526e-02|  8.0526e-02|  8.0526e-02|   -5.869818|   -5.976601|   -6.597705|   -6.209400|   -6.152154|   -8.816793|    2.045075|
|           6|  9.9447e+00|  6.8791e-10|  1.2395e-01|  8.8578e-02|  8.8578e-02|  8.8578e-02|   -5.869939|   -5.976698|   -6.597845|   -6.209530|   -6.152314|   -8.816784|    2.045077|
|           7|  9.4775e+00|  7.5670e-10|  1.3635e-01|  9.7436e-02|  9.7436e-02|  9.7436e-02|   -5.870071|   -5.976804|   -6.597995|   -6.209671|   -6.152487|   -8.816774|    2.045079|
|           8|  9.0803e+00|  8.3236e-10|  1.4998e-01|  1.0718e-01|  1.0718e-01|  1.0718e-01|   -5.870214|   -5.976920|   -6.598155|   -6.209822|   -6.152673|   -8.816762|    2.045081|
|           9|  8.7728e+00|  9.1560e-10|  1.6498e-01|  1.1790e-01|  1.1790e-01|  1.1790e-01|   -5.870368|   -5.977046|   -6.598324|   -6.209985|   -6.152873|   -8.816750|    2.045084|
|          10|  8.5218e+00|  1.0072e-09|  1.8148e-01|  1.2969e-01|  1.2969e-01|  1.2969e-01|   -5.870534|   -5.977183|   -6.598501|   -6.210160|   -6.153086|   -8.816737|    2.045086|
|          11|  8.3619e+00|  1.1079e-09|  1.9963e-01|  1.4266e-01|  1.4266e-01|  1.4266e-01|   -5.870713|   -5.977332|   -6.598687|   -6.210348|   -6.153314|   -8.816723|    2.045089|
|          12|  8.2166e+00|  1.2187e-09|  2.1959e-01|  1.5692e-01|  1.5692e-01|  1.5692e-01|   -5.870905|   -5.977493|   -6.598881|   -6.210548|   -6.153557|   -8.816707|    2.045092|
|          13|  8.0961e+00|  1.3405e-09|  2.4155e-01|  1.7261e-01|  1.7261e-01|  1.7261e-01|   -5.871111|   -5.977668|   -6.599082|   -6.210761|   -6.153814|   -8.816690|    2.045096|
|          14|  7.9930e+00|  1.4746e-09|  2.6571e-01|  1.8987e-01|  1.8987e-01|  1.8987e-01|   -5.871331|   -5.977858|   -6.599288|   -6.210987|   -6.154085|   -8.816672|    2.045100|
|          15|  7.9101e+00|  1.6220e-09|  2.9228e-01|  2.0886e-01|  2.0886e-01|  2.0886e-01|   -5.871565|   -5.978062|   -6.599498|   -6.211226|   -6.154370|   -8.816653|    2.045104|
|          16|  7.8409e+00|  1.7842e-09|  3.2150e-01|  2.2975e-01|  2.2975e-01|  2.2975e-01|   -5.871813|   -5.978281|   -6.599709|   -6.211477|   -6.154668|   -8.816633|    2.045109|
|          17|  7.7676e+00|  1.9626e-09|  3.5365e-01|  2.5272e-01|  2.5272e-01|  2.5272e-01|   -5.872075|   -5.978515|   -6.599919|   -6.211740|   -6.154976|   -8.816611|    2.045114|
|          18|  7.6973e+00|  2.1589e-09|  3.8902e-01|  2.7800e-01|  2.7800e-01|  2.7800e-01|   -5.872351|   -5.978766|   -6.600123|   -6.212013|   -6.155294|   -8.816588|    2.045120|
|          19|  7.6378e+00|  2.3748e-09|  4.2792e-01|  3.0580e-01|  3.0580e-01|  3.0580e-01|   -5.872640|   -5.979031|   -6.600319|   -6.212294|   -6.155618|   -8.816564|    2.045127|
|          20|  7.5880e+00|  2.6122e-09|  4.7071e-01|  3.3637e-01|  3.3637e-01|  3.3637e-01|   -5.872940|   -5.979311|   -6.600500|   -6.212582|   -6.155943|   -8.816539|    2.045134|
|          21|  7.5762e+00|  2.8734e-09|  5.1778e-01|  3.7001e-01|  3.7001e-01|  3.7001e-01|   -5.873248|   -5.979603|   -6.600660|   -6.212872|   -6.156265|   -8.816513|    2.045142|
|          22|  7.5832e+00|  3.1608e-09|  5.6956e-01|  4.0701e-01|  4.0701e-01|  4.0701e-01|   -5.873562|   -5.979906|   -6.600793|   -6.213161|   -6.156575|   -8.816487|    2.045151|
|          23|  7.5739e+00|  3.4768e-09|  6.2652e-01|  4.4772e-01|  4.4772e-01|  4.4772e-01|   -5.873876|   -5.980215|   -6.600891|   -6.213443|   -6.156866|   -8.816461|    2.045161|
|          24|  7.5619e+00|  3.8245e-09|  6.8917e-01|  4.9249e-01|  4.9249e-01|  4.9249e-01|   -5.874186|   -5.980527|   -6.600943|   -6.213711|   -6.157125|   -8.816435|    2.045172|
|          25|  7.5540e+00|  4.2069e-09|  7.5809e-01|  5.0000e-01|  5.0000e-01|  5.0000e-01|   -5.874482|   -5.980833|   -6.600940|   -6.213957|   -6.157338|   -8.816411|    2.045184|
|          26|  7.5390e+00|  4.2710e-09|  7.6965e-01|  5.0000e-01|  5.0000e-01|  5.0000e-01|   -5.874755|   -5.981124|   -6.600869|   -6.214168|   -6.157486|   -8.816485|    2.045197|
|          27|  7.5311e+00|  4.2710e-09|  7.6965e-01|  5.0000e-01|  5.0000e-01|  5.0000e-01|   -5.875019|   -5.981406|   -6.600799|   -6.214371|   -6.157615|   -8.816578|    2.045209|
|          28|  7.5193e+00|  4.2710e-09|  7.6965e-01|  5.0000e-01|  5.0000e-01|  5.0000e-01|   -5.875278|   -5.981678|   -6.600742|   -6.214572|   -6.157737|   -8.816672|    2.045222|
|          29|  7.5040e+00|  4.2709e-09|  7.6965e-01|  5.0000e-01|  5.0000e-01|  5.0000e-01|   -5.875533|   -5.981943|   -6.600700|   -6.214772|   -6.157850|   -8.816767|    2.045235|
|          30|  7.4932e+00|  4.2709e-09|  7.6965e-01|  5.0000e-01|  5.0000e-01|  5.0000e-01|   -5.875783|   -5.982201|   -6.600669|   -6.214971|   -6.157955|   -8.816862|    2.045249|
|          31|  7.4807e+00|  4.2709e-09|  7.6965e-01|  5.0000e-01|  5.0000e-01|  5.0000e-01|   -5.876029|   -5.982452|   -6.600651|   -6.215168|   -6.158055|   -8.816957|    2.045262|
|          32|  7.4705e+00|  4.2708e-09|  7.6965e-01|  5.0000e-01|  5.0000e-01|  5.0000e-01|   -5.876272|   -5.982697|   -6.600644|   -6.215364|   -6.158149|   -8.817052|    2.045276|
|          33|  7.4640e+00|  4.2708e-09|  7.6965e-01|  5.0000e-01|  5.0000e-01|  5.0000e-01|   -5.876511|   -5.982938|   -6.600649|   -6.215560|   -6.158238|   -8.817147|    2.045289|
|          34|  7.4557e+00|  4.2708e-09|  7.6965e-01|  5.0000e-01|  5.0000e-01|  5.0000e-01|   -5.876746|   -5.983174|   -6.600664|   -6.215756|   -6.158322|   -8.817243|    2.045303|
|          35|  7.4490e+00|  4.2707e-09|  7.6965e-01|  5.0000e-01|  5.0000e-01|  5.0000e-01|   -5.876980|   -5.983407|   -6.600690|   -6.215952|   -6.158404|   -8.817339|    2.045317|
|          36|  7.4379e+00|  4.2707e-09|  7.6965e-01|  5.0000e-01|  5.0000e-01|  5.0000e-01|   -5.877212|   -5.983638|   -6.600725|   -6.216149|   -6.158483|   -8.817434|    2.045331|
|          37|  7.4292e+00|  4.2706e-09|  7.6965e-01|  5.0000e-01|  5.0000e-01|  5.0000e-01|   -5.877443|   -5.983867|   -6.600770|   -6.216347|   -6.158561|   -8.817530|    2.045346|
|          38|  7.4251e+00|  4.2706e-09|  7.6965e-01|  5.0000e-01|  5.0000e-01|  5.0000e-01|   -5.877673|   -5.984095|   -6.600823|   -6.216547|   -6.158640|   -8.817625|    2.045360|
|          39|  7.4237e+00|  4.2706e-09|  7.6965e-01|  5.0000e-01|  5.0000e-01|  5.0000e-01|   -5.877904|   -5.984324|   -6.600885|   -6.216749|   -6.158719|   -8.817721|    2.045375|
|          40|  7.4158e+00|  4.2705e-09|  7.6965e-01|  5.0000e-01|  5.0000e-01|  5.0000e-01|   -5.878137|   -5.984553|   -6.600955|   -6.216954|   -6.158799|   -8.817816|    2.045389|
|          41|  7.4087e+00|  4.2705e-09|  7.6965e-01|  5.0000e-01|  5.0000e-01|  5.0000e-01|   -5.878370|   -5.984784|   -6.601032|   -6.217162|   -6.158882|   -8.817911|    2.045404|
|          42|  7.4044e+00|  4.2705e-09|  7.6965e-01|  5.0000e-01|  5.0000e-01|  5.0000e-01|   -5.878606|   -5.985017|   -6.601116|   -6.217373|   -6.158968|   -8.818006|    2.045419|
|          43|  7.3974e+00|  4.2704e-09|  7.6965e-01|  5.0000e-01|  5.0000e-01|  5.0000e-01|   -5.878845|   -5.985254|   -6.601207|   -6.217589|   -6.159057|   -8.818101|    2.045435|
|          44|  7.3950e+00|  4.2704e-09|  7.6965e-01|  5.0000e-01|  5.0000e-01|  5.0000e-01|   -5.879086|   -5.985494|   -6.601303|   -6.217808|   -6.159152|   -8.818195|    2.045450|
|          45|  7.3864e+00|  4.2704e-09|  7.6965e-01|  5.0000e-01|  5.0000e-01|  5.0000e-01|   -5.879331|   -5.985738|   -6.601406|   -6.218032|   -6.159251|   -8.818289|    2.045465|
|          46|  7.3771e+00|  4.2703e-09|  7.6965e-01|  5.0000e-01|  5.0000e-01|  5.0000e-01|   -5.879581|   -5.985987|   -6.601515|   -6.218262|   -6.159356|   -8.818382|    2.045481|
|          47|  7.3701e+00|  4.2703e-09|  7.6965e-01|  5.0000e-01|  5.0000e-01|  5.0000e-01|   -5.879835|   -5.986241|   -6.601628|   -6.218496|   -6.159468|   -8.818475|    2.045497|
|          48|  7.3660e+00|  4.2703e-09|  7.6965e-01|  5.0000e-01|  5.0000e-01|  5.0000e-01|   -5.880094|   -5.986501|   -6.601747|   -6.218736|   -6.159586|   -8.818568|    2.045513|
|          49|  7.3629e+00|  4.2702e-09|  7.6965e-01|  5.0000e-01|  5.0000e-01|  5.0000e-01|   -5.880358|   -5.986768|   -6.601870|   -6.218981|   -6.159711|   -8.818660|    2.045529|
|          50|  7.3558e+00|  4.2702e-09|  7.6965e-01|  5.0000e-01|  5.0000e-01|  5.0000e-01|   -5.880629|   -5.987040|   -6.601998|   -6.219232|   -6.159845|   -8.818751|    2.045545|
|          51|  7.3474e+00|  4.2702e-09|  7.6965e-01|  5.0000e-01|  5.0000e-01|  5.0000e-01|   -5.880906|   -5.987320|   -6.602130|   -6.219489|   -6.159986|   -8.818842|    2.045561|
|          52|  7.3402e+00|  4.2701e-09|  7.6965e-01|  5.0000e-01|  5.0000e-01|  5.0000e-01|   -5.881189|   -5.987606|   -6.602265|   -6.219752|   -6.160136|   -8.818932|    2.045578|
|          53|  7.3337e+00|  4.2701e-09|  7.6965e-01|  5.0000e-01|  5.0000e-01|  5.0000e-01|   -5.881478|   -5.987899|   -6.602404|   -6.220021|   -6.160294|   -8.819022|    2.045595|
|          54|  7.3288e+00|  4.2701e-09|  7.6965e-01|  5.0000e-01|  5.0000e-01|  5.0000e-01|   -5.881775|   -5.988200|   -6.602546|   -6.220296|   -6.160460|   -8.819111|    2.045611|
|          55|  7.3298e+00|  4.2700e-09|  7.6965e-01|  5.0000e-01|  5.0000e-01|  5.0000e-01|   -5.882078|   -5.988508|   -6.602692|   -6.220577|   -6.160636|   -8.819199|    2.045628|
|          56|  7.3345e+00|  4.2700e-09|  7.6965e-01|  5.0000e-01|  5.0000e-01|  5.0000e-01|   -5.882388|   -5.988823|   -6.602840|   -6.220864|   -6.160819|   -8.819287|    2.045645|
|          57|  7.3347e+00|  4.2699e-09|  7.6965e-01|  5.0000e-01|  5.0000e-01|  5.0000e-01|   -5.882706|   -5.989146|   -6.602992|   -6.221157|   -6.161012|   -8.819374|    2.045663|
|          58|  7.3345e+00|  4.2699e-09|  7.6965e-01|  5.0000e-01|  5.0000e-01|  5.0000e-01|   -5.883030|   -5.989476|   -6.603146|   -6.221457|   -6.161212|   -8.819461|    2.045680|
|          59|  7.3296e+00|  4.2699e-09|  7.6965e-01|  5.0000e-01|  5.0000e-01|  5.0000e-01|   -5.883361|   -5.989813|   -6.603302|   -6.221761|   -6.161422|   -8.819546|    2.045698|
|          60|  7.3280e+00|  4.2698e-09|  7.6965e-01|  5.0000e-01|  5.0000e-01|  5.0000e-01|   -5.883699|   -5.990157|   -6.603460|   -6.222072|   -6.161639|   -8.819631|    2.045715|
|          61|  7.3252e+00|  4.2698e-09|  7.6965e-01|  5.0000e-01|  5.0000e-01|  5.0000e-01|   -5.884043|   -5.990508|   -6.603621|   -6.222387|   -6.161864|   -8.819716|    2.045733|
|          62|  7.3211e+00|  4.2698e-09|  7.6965e-01|  5.0000e-01|  5.0000e-01|  5.0000e-01|   -5.884395|   -5.990866|   -6.603783|   -6.222709|   -6.162097|   -8.819799|    2.045751|
|          63|  7.3180e+00|  4.2697e-09|  7.6965e-01|  5.0000e-01|  5.0000e-01|  5.0000e-01|   -5.884753|   -5.991231|   -6.603947|   -6.223035|   -6.162338|   -8.819882|    2.045769|
|          64|  7.3144e+00|  4.2697e-09|  7.6965e-01|  5.0000e-01|  5.0000e-01|  5.0000e-01|   -5.885117|   -5.991602|   -6.604113|   -6.223366|   -6.162586|   -8.819964|    2.045788|
|          65|  7.3076e+00|  4.2697e-09|  7.6965e-01|  5.0000e-01|  5.0000e-01|  5.0000e-01|   -5.885488|   -5.991980|   -6.604281|   -6.223702|   -6.162841|   -8.820046|    2.045806|
|          66|  7.3046e+00|  4.2696e-09|  7.6965e-01|  5.0000e-01|  5.0000e-01|  5.0000e-01|   -5.885865|   -5.992365|   -6.604450|   -6.224043|   -6.163103|   -8.820126|    2.045824|
|          67|  7.3013e+00|  4.2696e-09|  7.6965e-01|  5.0000e-01|  5.0000e-01|  5.0000e-01|   -5.886247|   -5.992755|   -6.604620|   -6.224389|   -6.163372|   -8.820206|    2.045843|
|          68|  7.3003e+00|  4.2696e-09|  7.6965e-01|  5.0000e-01|  5.0000e-01|  5.0000e-01|   -5.886636|   -5.993152|   -6.604792|   -6.224739|   -6.163647|   -8.820285|    2.045862|
|          69|  7.2969e+00|  4.2695e-09|  7.6965e-01|  5.0000e-01|  5.0000e-01|  5.0000e-01|   -5.887030|   -5.993554|   -6.604965|   -6.225093|   -6.163928|   -8.820363|    2.045881|
|          70|  7.2959e+00|  4.2695e-09|  7.6965e-01|  5.0000e-01|  5.0000e-01|  5.0000e-01|   -5.887429|   -5.993963|   -6.605140|   -6.225452|   -6.164215|   -8.820441|    2.045900|
|          71|  7.2932e+00|  4.2695e-09|  7.6965e-01|  5.0000e-01|  5.0000e-01|  5.0000e-01|   -5.887835|   -5.994377|   -6.605316|   -6.225815|   -6.164508|   -8.820518|    2.045919|
|          72|  7.2938e+00|  4.2694e-09|  7.6965e-01|  5.0000e-01|  5.0000e-01|  5.0000e-01|   -5.888245|   -5.994797|   -6.605494|   -6.226181|   -6.164807|   -8.820594|    2.045939|
|          73|  7.2949e+00|  4.2694e-09|  7.6965e-01|  5.0000e-01|  5.0000e-01|  5.0000e-01|   -5.888661|   -5.995222|   -6.605672|   -6.226552|   -6.165111|   -8.820669|    2.045958|
|          74|  7.2933e+00|  4.2694e-09|  7.6965e-01|  5.0000e-01|  5.0000e-01|  5.0000e-01|   -5.889081|   -5.995653|   -6.605852|   -6.226926|   -6.165420|   -8.820743|    2.045978|
|          75|  7.2892e+00|  4.2693e-09|  7.6965e-01|  5.0000e-01|  5.0000e-01|  5.0000e-01|   -5.889507|   -5.996089|   -6.606033|   -6.227305|   -6.165734|   -8.820817|    2.045998|
|          76|  7.2858e+00|  4.2693e-09|  7.6965e-01|  5.0000e-01|  5.0000e-01|  5.0000e-01|   -5.889936|   -5.996530|   -6.606215|   -6.227686|   -6.166053|   -8.820890|    2.046018|
|          77|  7.2818e+00|  4.2693e-09|  7.6965e-01|  5.0000e-01|  5.0000e-01|  5.0000e-01|   -5.890370|   -5.996976|   -6.606397|   -6.228071|   -6.166376|   -8.820962|    2.046038|
|          78|  7.2804e+00|  4.2692e-09|  7.6965e-01|  5.0000e-01|  5.0000e-01|  5.0000e-01|   -5.890809|   -5.997427|   -6.606581|   -6.228459|   -6.166703|   -8.821033|    2.046058|
|          79|  7.2778e+00|  4.2692e-09|  7.6965e-01|  5.0000e-01|  5.0000e-01|  5.0000e-01|   -5.891252|   -5.997883|   -6.606766|   -6.228851|   -6.167035|   -8.821104|    2.046079|
|          80|  7.2744e+00|  4.2691e-09|  7.6965e-01|  5.0000e-01|  5.0000e-01|  5.0000e-01|   -5.891699|   -5.998343|   -6.606952|   -6.229245|   -6.167371|   -8.821174|    2.046099|
|          81|  7.2715e+00|  4.2691e-09|  7.6965e-01|  5.0000e-01|  5.0000e-01|  5.0000e-01|   -5.892149|   -5.998809|   -6.607138|   -6.229643|   -6.167710|   -8.821242|    2.046120|
|          82|  7.2681e+00|  4.2691e-09|  7.6965e-01|  5.0000e-01|  5.0000e-01|  5.0000e-01|   -5.892603|   -5.999279|   -6.607326|   -6.230044|   -6.168053|   -8.821310|    2.046141|
|          83|  7.2665e+00|  4.2690e-09|  7.6965e-01|  5.0000e-01|  5.0000e-01|  5.0000e-01|   -5.893061|   -5.999754|   -6.607515|   -6.230448|   -6.168400|   -8.821377|    2.046162|
|          84|  7.2658e+00|  4.2690e-09|  7.6965e-01|  5.0000e-01|  5.0000e-01|  5.0000e-01|   -5.893522|   -6.000233|   -6.607705|   -6.230855|   -6.168750|   -8.821444|    2.046183|
|          85|  7.2648e+00|  4.2690e-09|  7.6965e-01|  5.0000e-01|  5.0000e-01|  5.0000e-01|   -5.893986|   -6.000717|   -6.607897|   -6.231265|   -6.169104|   -8.821509|    2.046204|
|          86|  7.2624e+00|  4.2689e-09|  7.6965e-01|  5.0000e-01|  5.0000e-01|  5.0000e-01|   -5.894454|   -6.001205|   -6.608089|   -6.231678|   -6.169461|   -8.821573|    2.046225|
|          87|  7.2595e+00|  4.2689e-09|  7.6965e-01|  5.0000e-01|  5.0000e-01|  5.0000e-01|   -5.894926|   -6.001698|   -6.608283|   -6.232093|   -6.169821|   -8.821637|    2.046247|
|          88|  7.2564e+00|  4.2689e-09|  7.6965e-01|  5.0000e-01|  5.0000e-01|  5.0000e-01|   -5.895400|   -6.002195|   -6.608477|   -6.232512|   -6.170185|   -8.821700|    2.046268|
|          89|  7.2600e+00|  4.2688e-09|  7.6965e-01|  5.0000e-01|  5.0000e-01|  5.0000e-01|   -5.895878|   -6.002696|   -6.608673|   -6.232933|   -6.170551|   -8.821761|    2.046290|
|          90|  7.2604e+00|  4.2688e-09|  7.6965e-01|  5.0000e-01|  5.0000e-01|  5.0000e-01|   -5.896358|   -6.003201|   -6.608869|   -6.233356|   -6.170921|   -8.821822|    2.046312|
|          91|  7.2599e+00|  4.2688e-09|  7.6965e-01|  5.0000e-01|  5.0000e-01|  5.0000e-01|   -5.896841|   -6.003711|   -6.609067|   -6.233782|   -6.171293|   -8.821882|    2.046334|
|          92|  7.2584e+00|  4.2687e-09|  7.6965e-01|  5.0000e-01|  5.0000e-01|  5.0000e-01|   -5.897327|   -6.004224|   -6.609265|   -6.234210|   -6.171668|   -8.821941|    2.046356|
|          93|  7.2563e+00|  4.2687e-09|  7.6965e-01|  5.0000e-01|  5.0000e-01|  5.0000e-01|   -5.897816|   -6.004741|   -6.609464|   -6.234641|   -6.172046|   -8.821999|    2.046379|
|          94|  7.2557e+00|  4.2687e-09|  7.6965e-01|  5.0000e-01|  5.0000e-01|  5.0000e-01|   -5.898307|   -6.005262|   -6.609664|   -6.235074|   -6.172426|   -8.822056|    2.046401|
|          95|  7.2539e+00|  4.2686e-09|  7.6965e-01|  5.0000e-01|  5.0000e-01|  5.0000e-01|   -5.898801|   -6.005787|   -6.609865|   -6.235509|   -6.172809|   -8.822112|    2.046424|
|          96|  7.2520e+00|  4.2686e-09|  7.6965e-01|  5.0000e-01|  5.0000e-01|  5.0000e-01|   -5.899297|   -6.006316|   -6.610067|   -6.235947|   -6.173194|   -8.822167|    2.046447|
|          97|  7.2494e+00|  4.2686e-09|  7.6965e-01|  5.0000e-01|  5.0000e-01|  5.0000e-01|   -5.899796|   -6.006848|   -6.610269|   -6.236387|   -6.173582|   -8.822221|    2.046470|
|          98|  7.2471e+00|  4.2685e-09|  7.6965e-01|  5.0000e-01|  5.0000e-01|  5.0000e-01|   -5.900297|   -6.007384|   -6.610473|   -6.236829|   -6.173972|   -8.822273|    2.046493|
|          99|  7.2457e+00|  4.2685e-09|  7.6965e-01|  5.0000e-01|  5.0000e-01|  5.0000e-01|   -5.900801|   -6.007924|   -6.610678|   -6.237273|   -6.174365|   -8.822325|    2.046516|
|         100|  7.2457e+00|  4.2684e-09|  7.6965e-01|  5.0000e-01|  5.0000e-01|  5.0000e-01|   -5.901307|   -6.008468|   -6.610884|   -6.237719|   -6.174760|   -8.822376|    2.046539|
|         101|  7.2450e+00|  4.2684e-09|  7.6965e-01|  5.0000e-01|  5.0000e-01|  5.0000e-01|   -5.901815|   -6.009015|   -6.611091|   -6.238168|   -6.175157|   -8.822426|    2.046563|
|         102|  7.2431e+00|  4.2684e-09|  7.6965e-01|  5.0000e-01|  5.0000e-01|  5.0000e-01|   -5.902326|   -6.009565|   -6.611298|   -6.238618|   -6.175556|   -8.822475|    2.046586|
|         103|  7.2404e+00|  4.2683e-09|  7.6965e-01|  5.0000e-01|  5.0000e-01|  5.0000e-01|   -5.902838|   -6.010119|   -6.611506|   -6.239071|   -6.175958|   -8.822522|    2.046610|
|         104|  7.2384e+00|  4.2683e-09|  7.6965e-01|  5.0000e-01|  5.0000e-01|  5.0000e-01|   -5.903353|   -6.010676|   -6.611715|   -6.239525|   -6.176362|   -8.822569|    2.046634|
|         105|  7.2365e+00|  4.2683e-09|  7.6965e-01|  5.0000e-01|  5.0000e-01|  5.0000e-01|   -5.903871|   -6.011237|   -6.611926|   -6.239981|   -6.176768|   -8.822614|    2.046658|
|         106|  7.2380e+00|  4.2682e-09|  7.6965e-01|  5.0000e-01|  5.0000e-01|  5.0000e-01|   -5.904390|   -6.011801|   -6.612136|   -6.240439|   -6.177177|   -8.822658|    2.046682|
|         107|  7.2395e+00|  4.2682e-09|  7.6965e-01|  5.0000e-01|  5.0000e-01|  5.0000e-01|   -5.904911|   -6.012368|   -6.612348|   -6.240899|   -6.177587|   -8.822702|    2.046706|
|         108|  7.2372e+00|  4.2682e-09|  7.6965e-01|  5.0000e-01|  5.0000e-01|  5.0000e-01|   -5.905435|   -6.012939|   -6.612561|   -6.241360|   -6.178000|   -8.822744|    2.046731|
|         109|  7.2362e+00|  4.2681e-09|  7.6965e-01|  5.0000e-01|  5.0000e-01|  5.0000e-01|   -5.905960|   -6.013513|   -6.612775|   -6.241823|   -6.178414|   -8.822785|    2.046755|
|         110|  7.2349e+00|  4.2681e-09|  7.6965e-01|  5.0000e-01|  5.0000e-01|  5.0000e-01|   -5.906488|   -6.014090|   -6.612989|   -6.242288|   -6.178831|   -8.822824|    2.046780|
|         111|  7.2325e+00|  4.2681e-09|  7.6965e-01|  5.0000e-01|  5.0000e-01|  5.0000e-01|   -5.907018|   -6.014670|   -6.613205|   -6.242755|   -6.179250|   -8.822863|    2.046805|
|         112|  7.2317e+00|  4.2680e-09|  7.6965e-01|  5.0000e-01|  5.0000e-01|  5.0000e-01|   -5.907551|   -6.015254|   -6.613421|   -6.243223|   -6.179672|   -8.822900|    2.046830|
|         113|  7.2301e+00|  4.2680e-09|  7.6965e-01|  5.0000e-01|  5.0000e-01|  5.0000e-01|   -5.908085|   -6.015841|   -6.613639|   -6.243694|   -6.180096|   -8.822936|    2.046855|
|         114|  7.2299e+00|  4.2680e-09|  7.6965e-01|  5.0000e-01|  5.0000e-01|  5.0000e-01|   -5.908622|   -6.016431|   -6.613857|   -6.244166|   -6.180522|   -8.822971|    2.046880|
|         115|  7.2293e+00|  4.2679e-09|  7.6965e-01|  5.0000e-01|  5.0000e-01|  5.0000e-01|   -5.909161|   -6.017025|   -6.614077|   -6.244641|   -6.180950|   -8.823005|    2.046905|
|         116|  7.2278e+00|  4.2679e-09|  7.6965e-01|  5.0000e-01|  5.0000e-01|  5.0000e-01|   -5.909702|   -6.017622|   -6.614297|   -6.245116|   -6.181380|   -8.823037|    2.046931|
|         117|  7.2258e+00|  4.2679e-09|  7.6965e-01|  5.0000e-01|  5.0000e-01|  5.0000e-01|   -5.910244|   -6.018222|   -6.614517|   -6.245593|   -6.181812|   -8.823069|    2.046956|
|         118|  7.2240e+00|  4.2678e-09|  7.6965e-01|  5.0000e-01|  5.0000e-01|  5.0000e-01|   -5.910788|   -6.018825|   -6.614739|   -6.246072|   -6.182246|   -8.823099|    2.046982|
|         119|  7.2223e+00|  4.2678e-09|  7.6965e-01|  5.0000e-01|  5.0000e-01|  5.0000e-01|   -5.911335|   -6.019432|   -6.614961|   -6.246552|   -6.182683|   -8.823128|    2.047008|
|         120|  7.2214e+00|  4.2678e-09|  7.6965e-01|  5.0000e-01|  5.0000e-01|  5.0000e-01|   -5.911885|   -6.020042|   -6.615184|   -6.247034|   -6.183122|   -8.823155|    2.047034|
|         121|  7.2200e+00|  4.2677e-09|  7.6965e-01|  5.0000e-01|  5.0000e-01|  5.0000e-01|   -5.912437|   -6.020656|   -6.615408|   -6.247518|   -6.183564|   -8.823181|    2.047060|
|         122|  7.2192e+00|  4.2677e-09|  7.6965e-01|  5.0000e-01|  5.0000e-01|  5.0000e-01|   -5.912991|   -6.021272|   -6.615633|   -6.248004|   -6.184009|   -8.823206|    2.047086|
|         123|  7.2218e+00|  4.2676e-09|  7.6965e-01|  5.0000e-01|  5.0000e-01|  5.0000e-01|   -5.913549|   -6.021892|   -6.615860|   -6.248492|   -6.184456|   -8.823230|    2.047113|
|         124|  7.2242e+00|  4.2676e-09|  7.6965e-01|  5.0000e-01|  5.0000e-01|  5.0000e-01|   -5.914109|   -6.022516|   -6.616087|   -6.248982|   -6.184907|   -8.823252|    2.047139|
|         125|  7.2241e+00|  4.2676e-09|  7.6965e-01|  5.0000e-01|  5.0000e-01|  5.0000e-01|   -5.914671|   -6.023143|   -6.616315|   -6.249473|   -6.185360|   -8.823273|    2.047166|
|         126|  7.2249e+00|  4.2675e-09|  7.6965e-01|  5.0000e-01|  5.0000e-01|  5.0000e-01|   -5.915236|   -6.023773|   -6.616544|   -6.249967|   -6.185815|   -8.823293|    2.047193|
|         127|  7.2232e+00|  4.2675e-09|  7.6965e-01|  5.0000e-01|  5.0000e-01|  5.0000e-01|   -5.915804|   -6.024406|   -6.616773|   -6.250463|   -6.186274|   -8.823311|    2.047220|
|         128|  7.2228e+00|  4.2675e-09|  7.6965e-01|  5.0000e-01|  5.0000e-01|  5.0000e-01|   -5.916374|   -6.025043|   -6.617004|   -6.250960|   -6.186734|   -8.823328|    2.047247|
|         129|  7.2220e+00|  4.2674e-09|  7.6965e-01|  5.0000e-01|  5.0000e-01|  5.0000e-01|   -5.916946|   -6.025684|   -6.617235|   -6.251459|   -6.187198|   -8.823344|    2.047274|
|         130|  7.2209e+00|  4.2674e-09|  7.6965e-01|  5.0000e-01|  5.0000e-01|  5.0000e-01|   -5.917520|   -6.026327|   -6.617466|   -6.251960|   -6.187663|   -8.823358|    2.047301|
|         131|  7.2197e+00|  4.2674e-09|  7.6965e-01|  5.0000e-01|  5.0000e-01|  5.0000e-01|   -5.918097|   -6.026974|   -6.617698|   -6.252463|   -6.188131|   -8.823371|    2.047329|
|         132|  7.2178e+00|  4.2673e-09|  7.6965e-01|  5.0000e-01|  5.0000e-01|  5.0000e-01|   -5.918675|   -6.027624|   -6.617931|   -6.252967|   -6.188602|   -8.823382|    2.047356|
|         133|  7.2174e+00|  4.2673e-09|  7.6965e-01|  5.0000e-01|  5.0000e-01|  5.0000e-01|   -5.919256|   -6.028278|   -6.618165|   -6.253473|   -6.189074|   -8.823392|    2.047384|
|         134|  7.2161e+00|  4.2673e-09|  7.6965e-01|  5.0000e-01|  5.0000e-01|  5.0000e-01|   -5.919839|   -6.028935|   -6.618399|   -6.253980|   -6.189549|   -8.823401|    2.047412|
|         135|  7.2143e+00|  4.2672e-09|  7.6965e-01|  5.0000e-01|  5.0000e-01|  5.0000e-01|   -5.920424|   -6.029594|   -6.618634|   -6.254488|   -6.190026|   -8.823409|    2.047440|
|         136|  7.2132e+00|  4.2672e-09|  7.6965e-01|  5.0000e-01|  5.0000e-01|  5.0000e-01|   -5.921010|   -6.030257|   -6.618868|   -6.254999|   -6.190506|   -8.823415|    2.047468|
|         137|  7.2118e+00|  4.2672e-09|  7.6965e-01|  5.0000e-01|  5.0000e-01|  5.0000e-01|   -5.921599|   -6.030923|   -6.619104|   -6.255510|   -6.190987|   -8.823419|    2.047496|
|         138|  7.2113e+00|  4.2671e-09|  7.6965e-01|  5.0000e-01|  5.0000e-01|  5.0000e-01|   -5.922190|   -6.031593|   -6.619340|   -6.256024|   -6.191471|   -8.823422|    2.047524|
|         139|  7.2101e+00|  4.2671e-09|  7.6965e-01|  5.0000e-01|  5.0000e-01|  5.0000e-01|   -5.922783|   -6.032265|   -6.619577|   -6.256539|   -6.191958|   -8.823424|    2.047553|
|         140|  7.2094e+00|  4.2671e-09|  7.6965e-01|  5.0000e-01|  5.0000e-01|  5.0000e-01|   -5.923378|   -6.032941|   -6.619815|   -6.257055|   -6.192446|   -8.823424|    2.047581|
|         141|  7.2092e+00|  4.2670e-09|  7.6965e-01|  5.0000e-01|  5.0000e-01|  5.0000e-01|   -5.923975|   -6.033620|   -6.620053|   -6.257573|   -6.192937|   -8.823423|    2.047610|
|         142|  7.2097e+00|  4.2670e-09|  7.6965e-01|  5.0000e-01|  5.0000e-01|  5.0000e-01|   -5.924573|   -6.034301|   -6.620291|   -6.258091|   -6.193429|   -8.823420|    2.047639|
|         143|  7.2088e+00|  4.2670e-09|  7.6965e-01|  5.0000e-01|  5.0000e-01|  5.0000e-01|   -5.925173|   -6.034986|   -6.620530|   -6.258611|   -6.193924|   -8.823416|    2.047668|
|         144|  7.2075e+00|  4.2669e-09|  7.6965e-01|  5.0000e-01|  5.0000e-01|  5.0000e-01|   -5.925775|   -6.035674|   -6.620770|   -6.259132|   -6.194420|   -8.823411|    2.047697|
|         145|  7.2068e+00|  4.2669e-09|  7.6965e-01|  5.0000e-01|  5.0000e-01|  5.0000e-01|   -5.926379|   -6.036365|   -6.621010|   -6.259654|   -6.194919|   -8.823404|    2.047726|
|         146|  7.2059e+00|  4.2668e-09|  7.6965e-01|  5.0000e-01|  5.0000e-01|  5.0000e-01|   -5.926984|   -6.037059|   -6.621251|   -6.260178|   -6.195419|   -8.823396|    2.047755|
|         147|  7.2048e+00|  4.2668e-09|  7.6965e-01|  5.0000e-01|  5.0000e-01|  5.0000e-01|   -5.927591|   -6.037756|   -6.621491|   -6.260702|   -6.195922|   -8.823386|    2.047785|
|         148|  7.2033e+00|  4.2668e-09|  7.6965e-01|  5.0000e-01|  5.0000e-01|  5.0000e-01|   -5.928200|   -6.038456|   -6.621733|   -6.261228|   -6.196426|   -8.823375|    2.047814|
|         149|  7.2016e+00|  4.2667e-09|  7.6965e-01|  5.0000e-01|  5.0000e-01|  5.0000e-01|   -5.928810|   -6.039159|   -6.621975|   -6.261754|   -6.196933|   -8.823362|    2.047844|
|         150|  7.2003e+00|  4.2667e-09|  7.6965e-01|  5.0000e-01|  5.0000e-01|  5.0000e-01|   -5.929423|   -6.039865|   -6.622217|   -6.262283|   -6.197441|   -8.823348|    2.047874|
+-----------------------------------------------------------------------+
|        File Writing Summary       |              Filename             |
+-----------------------------------------------------------------------+
|SU2 binary restart                 |restart_flow.dat                   |
|Paraview                           |flow.vtu                           |
|Paraview surface                   |surface_flow.vtu                   |
+-----------------------------------------------------------------------+
+-------------------------------------------------------------------------------------------------------------------------------------------------------------------------------------+
|  Inner_Iter|   Time(sec)|      Min DT|      Max DT|     Min CFL|     Max CFL|     Avg CFL|    rms[Rho]|   rms[RhoU]|   rms[RhoV]|   rms[RhoW]|   rms[RhoE]|     rms[nu]|          CD|
+-------------------------------------------------------------------------------------------------------------------------------------------------------------------------------------+
|         151|  7.3638e+00|  4.2667e-09|  7.6965e-01|  5.0000e-01|  5.0000e-01|  5.0000e-01|   -5.930036|   -6.040574|   -6.622459|   -6.262811|   -6.197951|   -8.823332|    2.047903|
|         152|  7.3615e+00|  4.2666e-09|  7.6965e-01|  5.0000e-01|  5.0000e-01|  5.0000e-01|   -5.930650|   -6.041285|   -6.622701|   -6.263341|   -6.198462|   -8.823315|    2.047933|
|         153|  7.3600e+00|  4.2666e-09|  7.6965e-01|  5.0000e-01|  5.0000e-01|  5.0000e-01|   -5.931266|   -6.042000|   -6.622943|   -6.263871|   -6.198975|   -8.823297|    2.047964|
|         154|  7.3570e+00|  4.2666e-09|  7.6965e-01|  5.0000e-01|  5.0000e-01|  5.0000e-01|   -5.931883|   -6.042717|   -6.623186|   -6.264403|   -6.199490|   -8.823277|    2.047994|
|         155|  7.3545e+00|  4.2665e-09|  7.6965e-01|  5.0000e-01|  5.0000e-01|  5.0000e-01|   -5.932501|   -6.043438|   -6.623429|   -6.264935|   -6.200007|   -8.823256|    2.048024|
|         156|  7.3513e+00|  4.2665e-09|  7.6965e-01|  5.0000e-01|  5.0000e-01|  5.0000e-01|   -5.933121|   -6.044161|   -6.623672|   -6.265468|   -6.200526|   -8.823233|    2.048055|
|         157|  7.3488e+00|  4.2665e-09|  7.6965e-01|  5.0000e-01|  5.0000e-01|  5.0000e-01|   -5.933742|   -6.044887|   -6.623915|   -6.266002|   -6.201045|   -8.823209|    2.048085|
|         158|  7.3448e+00|  4.2664e-09|  7.6965e-01|  5.0000e-01|  5.0000e-01|  5.0000e-01|   -5.934364|   -6.045615|   -6.624159|   -6.266536|   -6.201567|   -8.823183|    2.048116|
|         159|  7.3410e+00|  4.2664e-09|  7.6965e-01|  5.0000e-01|  5.0000e-01|  5.0000e-01|   -5.934987|   -6.046347|   -6.624402|   -6.267070|   -6.202089|   -8.823156|    2.048147|
|         160|  7.3371e+00|  4.2664e-09|  7.6965e-01|  5.0000e-01|  5.0000e-01|  5.0000e-01|   -5.935611|   -6.047081|   -6.624646|   -6.267606|   -6.202613|   -8.823127|    2.048178|
|         161|  7.3333e+00|  4.2663e-09|  7.6965e-01|  5.0000e-01|  5.0000e-01|  5.0000e-01|   -5.936236|   -6.047817|   -6.624890|   -6.268142|   -6.203139|   -8.823097|    2.048209|
|         162|  7.3304e+00|  4.2663e-09|  7.6965e-01|  5.0000e-01|  5.0000e-01|  5.0000e-01|   -5.936862|   -6.048557|   -6.625134|   -6.268679|   -6.203666|   -8.823066|    2.048240|
|         163|  7.3274e+00|  4.2663e-09|  7.6965e-01|  5.0000e-01|  5.0000e-01|  5.0000e-01|   -5.937490|   -6.049299|   -6.625377|   -6.269217|   -6.204195|   -8.823033|    2.048271|
|         164|  7.3239e+00|  4.2662e-09|  7.6965e-01|  5.0000e-01|  5.0000e-01|  5.0000e-01|   -5.938118|   -6.050044|   -6.625620|   -6.269755|   -6.204725|   -8.822998|    2.048303|
|         165|  7.3203e+00|  4.2662e-09|  7.6965e-01|  5.0000e-01|  5.0000e-01|  5.0000e-01|   -5.938747|   -6.050791|   -6.625863|   -6.270294|   -6.205257|   -8.822962|    2.048334|
|         166|  7.3177e+00|  4.2662e-09|  7.6965e-01|  5.0000e-01|  5.0000e-01|  5.0000e-01|   -5.939377|   -6.051540|   -6.626106|   -6.270833|   -6.205790|   -8.822925|    2.048366|
|         167|  7.3142e+00|  4.2661e-09|  7.6965e-01|  5.0000e-01|  5.0000e-01|  5.0000e-01|   -5.940008|   -6.052293|   -6.626349|   -6.271372|   -6.206324|   -8.822886|    2.048397|
|         168|  7.3109e+00|  4.2661e-09|  7.6965e-01|  5.0000e-01|  5.0000e-01|  5.0000e-01|   -5.940639|   -6.053047|   -6.626592|   -6.271912|   -6.206860|   -8.822846|    2.048429|
|         169|  7.3083e+00|  4.2661e-09|  7.6965e-01|  5.0000e-01|  5.0000e-01|  5.0000e-01|   -5.941272|   -6.053805|   -6.626834|   -6.272453|   -6.207396|   -8.822804|    2.048461|
|         170|  7.3057e+00|  4.2660e-09|  7.6965e-01|  5.0000e-01|  5.0000e-01|  5.0000e-01|   -5.941905|   -6.054564|   -6.627076|   -6.272994|   -6.207935|   -8.822760|    2.048493|
|         171|  7.3032e+00|  4.2660e-09|  7.6965e-01|  5.0000e-01|  5.0000e-01|  5.0000e-01|   -5.942539|   -6.055326|   -6.627318|   -6.273535|   -6.208474|   -8.822716|    2.048525|
|         172|  7.3013e+00|  4.2659e-09|  7.6965e-01|  5.0000e-01|  5.0000e-01|  5.0000e-01|   -5.943173|   -6.056090|   -6.627560|   -6.274076|   -6.209015|   -8.822669|    2.048558|
|         173|  7.2993e+00|  4.2659e-09|  7.6965e-01|  5.0000e-01|  5.0000e-01|  5.0000e-01|   -5.943808|   -6.056857|   -6.627801|   -6.274617|   -6.209556|   -8.822622|    2.048590|
|         174|  7.2966e+00|  4.2659e-09|  7.6965e-01|  5.0000e-01|  5.0000e-01|  5.0000e-01|   -5.944444|   -6.057625|   -6.628042|   -6.275158|   -6.210099|   -8.822572|    2.048623|
|         175|  7.2942e+00|  4.2658e-09|  7.6965e-01|  5.0000e-01|  5.0000e-01|  5.0000e-01|   -5.945079|   -6.058396|   -6.628283|   -6.275700|   -6.210642|   -8.822522|    2.048655|
|         176|  7.2919e+00|  4.2658e-09|  7.6965e-01|  5.0000e-01|  5.0000e-01|  5.0000e-01|   -5.945716|   -6.059169|   -6.628523|   -6.276241|   -6.211187|   -8.822470|    2.048688|
|         177|  7.2895e+00|  4.2658e-09|  7.6965e-01|  5.0000e-01|  5.0000e-01|  5.0000e-01|   -5.946352|   -6.059944|   -6.628763|   -6.276783|   -6.211733|   -8.822416|    2.048721|
|         178|  7.2870e+00|  4.2657e-09|  7.6965e-01|  5.0000e-01|  5.0000e-01|  5.0000e-01|   -5.946989|   -6.060722|   -6.629002|   -6.277324|   -6.212279|   -8.822361|    2.048754|
|         179|  7.2843e+00|  4.2657e-09|  7.6965e-01|  5.0000e-01|  5.0000e-01|  5.0000e-01|   -5.947625|   -6.061500|   -6.629241|   -6.277865|   -6.212826|   -8.822305|    2.048787|
|         180|  7.2813e+00|  4.2657e-09|  7.6965e-01|  5.0000e-01|  5.0000e-01|  5.0000e-01|   -5.948263|   -6.062281|   -6.629479|   -6.278406|   -6.213375|   -8.822247|    2.048820|
|         181|  7.2785e+00|  4.2656e-09|  7.6965e-01|  5.0000e-01|  5.0000e-01|  5.0000e-01|   -5.948901|   -6.063064|   -6.629716|   -6.278947|   -6.213925|   -8.822188|    2.048853|
|         182|  7.2759e+00|  4.2656e-09|  7.6965e-01|  5.0000e-01|  5.0000e-01|  5.0000e-01|   -5.949539|   -6.063848|   -6.629954|   -6.279488|   -6.214475|   -8.822127|    2.048886|
|         183|  7.2738e+00|  4.2656e-09|  7.6965e-01|  5.0000e-01|  5.0000e-01|  5.0000e-01|   -5.950177|   -6.064635|   -6.630190|   -6.280029|   -6.215027|   -8.822065|    2.048920|
|         184|  7.2718e+00|  4.2655e-09|  7.6965e-01|  5.0000e-01|  5.0000e-01|  5.0000e-01|   -5.950816|   -6.065423|   -6.630426|   -6.280569|   -6.215580|   -8.822001|    2.048953|
|         185|  7.2689e+00|  4.2655e-09|  7.6965e-01|  5.0000e-01|  5.0000e-01|  5.0000e-01|   -5.951455|   -6.066212|   -6.630661|   -6.281109|   -6.216133|   -8.821936|    2.048987|
|         186|  7.2658e+00|  4.2655e-09|  7.6965e-01|  5.0000e-01|  5.0000e-01|  5.0000e-01|   -5.952095|   -6.067004|   -6.630895|   -6.281649|   -6.216687|   -8.821869|    2.049021|
|         187|  7.2631e+00|  4.2654e-09|  7.6965e-01|  5.0000e-01|  5.0000e-01|  5.0000e-01|   -5.952734|   -6.067796|   -6.631128|   -6.282188|   -6.217242|   -8.821802|    2.049055|
|         188|  7.2603e+00|  4.2654e-09|  7.6965e-01|  5.0000e-01|  5.0000e-01|  5.0000e-01|   -5.953374|   -6.068590|   -6.631360|   -6.282727|   -6.217798|   -8.821732|    2.049089|
|         189|  7.2581e+00|  4.2654e-09|  7.6965e-01|  5.0000e-01|  5.0000e-01|  5.0000e-01|   -5.954013|   -6.069386|   -6.631592|   -6.283265|   -6.218355|   -8.821661|    2.049123|
|         190|  7.2556e+00|  4.2653e-09|  7.6965e-01|  5.0000e-01|  5.0000e-01|  5.0000e-01|   -5.954653|   -6.070183|   -6.631822|   -6.283802|   -6.218912|   -8.821589|    2.049157|
|         191|  7.2536e+00|  4.2653e-09|  7.6965e-01|  5.0000e-01|  5.0000e-01|  5.0000e-01|   -5.955293|   -6.070981|   -6.632053|   -6.284340|   -6.219471|   -8.821516|    2.049191|
|         192|  7.2517e+00|  4.2653e-09|  7.6965e-01|  5.0000e-01|  5.0000e-01|  5.0000e-01|   -5.955934|   -6.071780|   -6.632282|   -6.284877|   -6.220030|   -8.821441|    2.049226|
|         193|  7.2502e+00|  4.2652e-09|  7.6965e-01|  5.0000e-01|  5.0000e-01|  5.0000e-01|   -5.956575|   -6.072581|   -6.632511|   -6.285413|   -6.220590|   -8.821364|    2.049260|
|         194|  7.2481e+00|  4.2652e-09|  7.6965e-01|  5.0000e-01|  5.0000e-01|  5.0000e-01|   -5.957215|   -6.073383|   -6.632739|   -6.285949|   -6.221151|   -8.821287|    2.049295|
|         195|  7.2460e+00|  4.2652e-09|  7.6965e-01|  5.0000e-01|  5.0000e-01|  5.0000e-01|   -5.957856|   -6.074186|   -6.632966|   -6.286484|   -6.221712|   -8.821208|    2.049329|
|         196|  7.2435e+00|  4.2651e-09|  7.6965e-01|  5.0000e-01|  5.0000e-01|  5.0000e-01|   -5.958497|   -6.074990|   -6.633193|   -6.287019|   -6.222274|   -8.821127|    2.049364|
|         197|  7.2412e+00|  4.2651e-09|  7.6965e-01|  5.0000e-01|  5.0000e-01|  5.0000e-01|   -5.959137|   -6.075795|   -6.633418|   -6.287553|   -6.222836|   -8.821045|    2.049399|
|         198|  7.2386e+00|  4.2650e-09|  7.6965e-01|  5.0000e-01|  5.0000e-01|  5.0000e-01|   -5.959777|   -6.076601|   -6.633642|   -6.288086|   -6.223398|   -8.820962|    2.049434|
|         199|  7.2367e+00|  4.2650e-09|  7.6965e-01|  5.0000e-01|  5.0000e-01|  5.0000e-01|   -5.960416|   -6.077408|   -6.633866|   -6.288618|   -6.223961|   -8.820878|    2.049469|
|         200|  7.2343e+00|  4.2650e-09|  7.6965e-01|  5.0000e-01|  5.0000e-01|  5.0000e-01|   -5.961055|   -6.078216|   -6.634089|   -6.289150|   -6.224524|   -8.820792|    2.049504|
|         201|  7.2319e+00|  4.2649e-09|  7.6965e-01|  5.0000e-01|  5.0000e-01|  5.0000e-01|   -5.961694|   -6.079025|   -6.634311|   -6.289681|   -6.225088|   -8.820704|    2.049540|
|         202|  7.2296e+00|  4.2649e-09|  7.6965e-01|  5.0000e-01|  5.0000e-01|  5.0000e-01|   -5.962332|   -6.079835|   -6.634532|   -6.290210|   -6.225652|   -8.820616|    2.049575|
|         203|  7.2272e+00|  4.2649e-09|  7.6965e-01|  5.0000e-01|  5.0000e-01|  5.0000e-01|   -5.962970|   -6.080645|   -6.634752|   -6.290739|   -6.226216|   -8.820526|    2.049611|
|         204|  7.2255e+00|  4.2648e-09|  7.6965e-01|  5.0000e-01|  5.0000e-01|  5.0000e-01|   -5.963606|   -6.081456|   -6.634971|   -6.291266|   -6.226780|   -8.820434|    2.049646|
|         205|  7.2237e+00|  4.2648e-09|  7.6965e-01|  5.0000e-01|  5.0000e-01|  5.0000e-01|   -5.964242|   -6.082268|   -6.635189|   -6.291792|   -6.227344|   -8.820342|    2.049682|
|         206|  7.2225e+00|  4.2648e-09|  7.6965e-01|  5.0000e-01|  5.0000e-01|  5.0000e-01|   -5.964877|   -6.083080|   -6.635407|   -6.292317|   -6.227908|   -8.820248|    2.049718|
|         207|  7.2217e+00|  4.2647e-09|  7.6965e-01|  5.0000e-01|  5.0000e-01|  5.0000e-01|   -5.965512|   -6.083894|   -6.635623|   -6.292842|   -6.228472|   -8.820153|    2.049753|
|         208|  7.2198e+00|  4.2647e-09|  7.6965e-01|  5.0000e-01|  5.0000e-01|  5.0000e-01|   -5.966146|   -6.084707|   -6.635838|   -6.293364|   -6.229037|   -8.820056|    2.049789|
|         209|  7.2175e+00|  4.2647e-09|  7.6965e-01|  5.0000e-01|  5.0000e-01|  5.0000e-01|   -5.966778|   -6.085522|   -6.636052|   -6.293886|   -6.229601|   -8.819958|    2.049826|
|         210|  7.2156e+00|  4.2646e-09|  7.6965e-01|  5.0000e-01|  5.0000e-01|  5.0000e-01|   -5.967409|   -6.086337|   -6.636265|   -6.294406|   -6.230165|   -8.819859|    2.049862|
|         211|  7.2133e+00|  4.2646e-09|  7.6965e-01|  5.0000e-01|  5.0000e-01|  5.0000e-01|   -5.968039|   -6.087152|   -6.636477|   -6.294924|   -6.230728|   -8.819758|    2.049898|
|         212|  7.2116e+00|  4.2646e-09|  7.6965e-01|  5.0000e-01|  5.0000e-01|  5.0000e-01|   -5.968667|   -6.087968|   -6.636689|   -6.295441|   -6.231292|   -8.819657|    2.049934|
|         213|  7.2100e+00|  4.2645e-09|  7.6965e-01|  5.0000e-01|  5.0000e-01|  5.0000e-01|   -5.969295|   -6.088785|   -6.636900|   -6.295957|   -6.231856|   -8.819554|    2.049971|
|         214|  7.2087e+00|  4.2645e-09|  7.6965e-01|  5.0000e-01|  5.0000e-01|  5.0000e-01|   -5.969921|   -6.089602|   -6.637109|   -6.296471|   -6.232419|   -8.819449|    2.050007|
|         215|  7.2070e+00|  4.2645e-09|  7.6965e-01|  5.0000e-01|  5.0000e-01|  5.0000e-01|   -5.970544|   -6.090419|   -6.637317|   -6.296984|   -6.232981|   -8.819344|    2.050044|
|         216|  7.2046e+00|  4.2644e-09|  7.6965e-01|  5.0000e-01|  5.0000e-01|  5.0000e-01|   -5.971167|   -6.091237|   -6.637523|   -6.297494|   -6.233543|   -8.819237|    2.050081|
|         217|  7.2023e+00|  4.2644e-09|  7.6965e-01|  5.0000e-01|  5.0000e-01|  5.0000e-01|   -5.971786|   -6.092054|   -6.637728|   -6.298003|   -6.234103|   -8.819129|    2.050118|
|         218|  7.1995e+00|  4.2644e-09|  7.6965e-01|  5.0000e-01|  5.0000e-01|  5.0000e-01|   -5.972404|   -6.092871|   -6.637931|   -6.298509|   -6.234663|   -8.819019|    2.050154|
|         219|  7.1974e+00|  4.2643e-09|  7.6965e-01|  5.0000e-01|  5.0000e-01|  5.0000e-01|   -5.973020|   -6.093688|   -6.638132|   -6.299014|   -6.235222|   -8.818909|    2.050191|
|         220|  7.1959e+00|  4.2643e-09|  7.6965e-01|  5.0000e-01|  5.0000e-01|  5.0000e-01|   -5.973633|   -6.094505|   -6.638332|   -6.299516|   -6.235780|   -8.818797|    2.050229|
|         221|  7.1940e+00|  4.2643e-09|  7.6965e-01|  5.0000e-01|  5.0000e-01|  5.0000e-01|   -5.974244|   -6.095322|   -6.638530|   -6.300016|   -6.236336|   -8.818684|    2.050266|
|         222|  7.1919e+00|  4.2642e-09|  7.6965e-01|  5.0000e-01|  5.0000e-01|  5.0000e-01|   -5.974853|   -6.096138|   -6.638726|   -6.300513|   -6.236892|   -8.818570|    2.050303|
|         223|  7.1912e+00|  4.2642e-09|  7.6965e-01|  5.0000e-01|  5.0000e-01|  5.0000e-01|   -5.975458|   -6.096953|   -6.638921|   -6.301007|   -6.237446|   -8.818454|    2.050340|
|         224|  7.1898e+00|  4.2641e-09|  7.6965e-01|  5.0000e-01|  5.0000e-01|  5.0000e-01|   -5.976062|   -6.097768|   -6.639114|   -6.301500|   -6.238000|   -8.818338|    2.050378|
|         225|  7.1885e+00|  4.2641e-09|  7.6965e-01|  5.0000e-01|  5.0000e-01|  5.0000e-01|   -5.976663|   -6.098583|   -6.639305|   -6.301990|   -6.238552|   -8.818220|    2.050415|
|         226|  7.1869e+00|  4.2641e-09|  7.6965e-01|  5.0000e-01|  5.0000e-01|  5.0000e-01|   -5.977262|   -6.099397|   -6.639494|   -6.302477|   -6.239104|   -8.818101|    2.050453|
|         227|  7.1854e+00|  4.2640e-09|  7.6965e-01|  5.0000e-01|  5.0000e-01|  5.0000e-01|   -5.977859|   -6.100210|   -6.639682|   -6.302962|   -6.239654|   -8.817981|    2.050491|
|         228|  7.1833e+00|  4.2640e-09|  7.6965e-01|  5.0000e-01|  5.0000e-01|  5.0000e-01|   -5.978453|   -6.101023|   -6.639867|   -6.303445|   -6.240203|   -8.817859|    2.050529|
|         229|  7.1814e+00|  4.2640e-09|  7.6965e-01|  5.0000e-01|  5.0000e-01|  5.0000e-01|   -5.979044|   -6.101835|   -6.640051|   -6.303925|   -6.240751|   -8.817737|    2.050567|
|         230|  7.1798e+00|  4.2639e-09|  7.6965e-01|  5.0000e-01|  5.0000e-01|  5.0000e-01|   -5.979632|   -6.102645|   -6.640234|   -6.304403|   -6.241297|   -8.817614|    2.050605|
|         231|  7.1784e+00|  4.2639e-09|  7.6965e-01|  5.0000e-01|  5.0000e-01|  5.0000e-01|   -5.980218|   -6.103455|   -6.640414|   -6.304878|   -6.241843|   -8.817489|    2.050643|
|         232|  7.1764e+00|  4.2639e-09|  7.6965e-01|  5.0000e-01|  5.0000e-01|  5.0000e-01|   -5.980801|   -6.104264|   -6.640592|   -6.305350|   -6.242387|   -8.817363|    2.050681|
|         233|  7.1746e+00|  4.2638e-09|  7.6965e-01|  5.0000e-01|  5.0000e-01|  5.0000e-01|   -5.981381|   -6.105072|   -6.640768|   -6.305820|   -6.242929|   -8.817236|    2.050719|
|         234|  7.1728e+00|  4.2638e-09|  7.6965e-01|  5.0000e-01|  5.0000e-01|  5.0000e-01|   -5.981958|   -6.105879|   -6.640943|   -6.306286|   -6.243470|   -8.817108|    2.050757|
|         235|  7.1712e+00|  4.2638e-09|  7.6965e-01|  5.0000e-01|  5.0000e-01|  5.0000e-01|   -5.982531|   -6.106684|   -6.641115|   -6.306749|   -6.244009|   -8.816979|    2.050796|
|         236|  7.1693e+00|  4.2637e-09|  7.6965e-01|  5.0000e-01|  5.0000e-01|  5.0000e-01|   -5.983101|   -6.107489|   -6.641287|   -6.307209|   -6.244546|   -8.816849|    2.050834|
|         237|  7.1678e+00|  4.2637e-09|  7.6965e-01|  5.0000e-01|  5.0000e-01|  5.0000e-01|   -5.983668|   -6.108291|   -6.641456|   -6.307666|   -6.245082|   -8.816718|    2.050873|
|         238|  7.1656e+00|  4.2637e-09|  7.6965e-01|  5.0000e-01|  5.0000e-01|  5.0000e-01|   -5.984233|   -6.109093|   -6.641623|   -6.308120|   -6.245616|   -8.816586|    2.050912|
|         239|  7.1637e+00|  4.2636e-09|  7.6965e-01|  5.0000e-01|  5.0000e-01|  5.0000e-01|   -5.984794|   -6.109893|   -6.641789|   -6.308571|   -6.246149|   -8.816453|    2.050950|
|         240|  7.1619e+00|  4.2636e-09|  7.6965e-01|  5.0000e-01|  5.0000e-01|  5.0000e-01|   -5.985353|   -6.110691|   -6.641952|   -6.309019|   -6.246681|   -8.816318|    2.050989|
|         241|  7.1610e+00|  4.2636e-09|  7.6965e-01|  5.0000e-01|  5.0000e-01|  5.0000e-01|   -5.985908|   -6.111488|   -6.642114|   -6.309464|   -6.247211|   -8.816183|    2.051028|
|         242|  7.1602e+00|  4.2635e-09|  7.6965e-01|  5.0000e-01|  5.0000e-01|  5.0000e-01|   -5.986460|   -6.112283|   -6.642273|   -6.309906|   -6.247740|   -8.816047|    2.051067|
|         243|  7.1589e+00|  4.2635e-09|  7.6965e-01|  5.0000e-01|  5.0000e-01|  5.0000e-01|   -5.987008|   -6.113076|   -6.642430|   -6.310345|   -6.248267|   -8.815909|    2.051106|
|         244|  7.1574e+00|  4.2635e-09|  7.6965e-01|  5.0000e-01|  5.0000e-01|  5.0000e-01|   -5.987553|   -6.113867|   -6.642586|   -6.310781|   -6.248791|   -8.815771|    2.051145|
|         245|  7.1557e+00|  4.2634e-09|  7.6965e-01|  5.0000e-01|  5.0000e-01|  5.0000e-01|   -5.988095|   -6.114656|   -6.642739|   -6.311214|   -6.249315|   -8.815632|    2.051185|
|         246|  7.1540e+00|  4.2634e-09|  7.6965e-01|  5.0000e-01|  5.0000e-01|  5.0000e-01|   -5.988633|   -6.115443|   -6.642890|   -6.311643|   -6.249836|   -8.815491|    2.051224|
|         247|  7.1530e+00|  4.2634e-09|  7.6965e-01|  5.0000e-01|  5.0000e-01|  5.0000e-01|   -5.989169|   -6.116228|   -6.643039|   -6.312070|   -6.250357|   -8.815350|    2.051263|
|         248|  7.1517e+00|  4.2633e-09|  7.6965e-01|  5.0000e-01|  5.0000e-01|  5.0000e-01|   -5.989700|   -6.117011|   -6.643187|   -6.312494|   -6.250875|   -8.815208|    2.051303|
|         249|  7.1506e+00|  4.2633e-09|  7.6965e-01|  5.0000e-01|  5.0000e-01|  5.0000e-01|   -5.990228|   -6.117791|   -6.643332|   -6.312914|   -6.251391|   -8.815065|    2.051342|
|         250|  7.1494e+00|  4.2632e-09|  7.6965e-01|  5.0000e-01|  5.0000e-01|  5.0000e-01|   -5.990752|   -6.118570|   -6.643475|   -6.313330|   -6.251905|   -8.814921|    2.051382|
|         251|  7.1480e+00|  4.2632e-09|  7.6965e-01|  5.0000e-01|  5.0000e-01|  5.0000e-01|   -5.991272|   -6.119345|   -6.643616|   -6.313743|   -6.252417|   -8.814776|    2.051422|
|         252|  7.1468e+00|  4.2632e-09|  7.6965e-01|  5.0000e-01|  5.0000e-01|  5.0000e-01|   -5.991789|   -6.120118|   -6.643755|   -6.314152|   -6.252927|   -8.814630|    2.051462|
|         253|  7.1456e+00|  4.2631e-09|  7.6965e-01|  5.0000e-01|  5.0000e-01|  5.0000e-01|   -5.992301|   -6.120888|   -6.643892|   -6.314557|   -6.253435|   -8.814484|    2.051501|
|         254|  7.1444e+00|  4.2631e-09|  7.6965e-01|  5.0000e-01|  5.0000e-01|  5.0000e-01|   -5.992810|   -6.121656|   -6.644026|   -6.314959|   -6.253941|   -8.814336|    2.051541|
|         255|  7.1428e+00|  4.2631e-09|  7.6965e-01|  5.0000e-01|  5.0000e-01|  5.0000e-01|   -5.993314|   -6.122420|   -6.644159|   -6.315357|   -6.254445|   -8.814188|    2.051581|
|         256|  7.1412e+00|  4.2630e-09|  7.6965e-01|  5.0000e-01|  5.0000e-01|  5.0000e-01|   -5.993815|   -6.123181|   -6.644289|   -6.315751|   -6.254946|   -8.814038|    2.051621|
|         257|  7.1397e+00|  4.2630e-09|  7.6965e-01|  5.0000e-01|  5.0000e-01|  5.0000e-01|   -5.994310|   -6.123940|   -6.644417|   -6.316141|   -6.255444|   -8.813888|    2.051662|
|         258|  7.1385e+00|  4.2630e-09|  7.6965e-01|  5.0000e-01|  5.0000e-01|  5.0000e-01|   -5.994801|   -6.124694|   -6.644542|   -6.316527|   -6.255940|   -8.813738|    2.051702|
|         259|  7.1382e+00|  4.2629e-09|  7.6965e-01|  5.0000e-01|  5.0000e-01|  5.0000e-01|   -5.995288|   -6.125446|   -6.644665|   -6.316909|   -6.256433|   -8.813586|    2.051742|
|         260|  7.1378e+00|  4.2629e-09|  7.6965e-01|  5.0000e-01|  5.0000e-01|  5.0000e-01|   -5.995770|   -6.126194|   -6.644785|   -6.317286|   -6.256923|   -8.813433|    2.051782|
|         261|  7.1367e+00|  4.2629e-09|  7.6965e-01|  5.0000e-01|  5.0000e-01|  5.0000e-01|   -5.996246|   -6.126939|   -6.644902|   -6.317659|   -6.257410|   -8.813280|    2.051823|
|         262|  7.1360e+00|  4.2628e-09|  7.6965e-01|  5.0000e-01|  5.0000e-01|  5.0000e-01|   -5.996718|   -6.127680|   -6.645017|   -6.318028|   -6.257894|   -8.813126|    2.051863|
|         263|  7.1348e+00|  4.2628e-09|  7.6965e-01|  5.0000e-01|  5.0000e-01|  5.0000e-01|   -5.997184|   -6.128416|   -6.645129|   -6.318392|   -6.258375|   -8.812972|    2.051904|
|         264|  7.1332e+00|  4.2628e-09|  7.6965e-01|  5.0000e-01|  5.0000e-01|  5.0000e-01|   -5.997646|   -6.129149|   -6.645238|   -6.318752|   -6.258853|   -8.812816|    2.051945|
|         265|  7.1320e+00|  4.2627e-09|  7.6965e-01|  5.0000e-01|  5.0000e-01|  5.0000e-01|   -5.998103|   -6.129879|   -6.645346|   -6.319108|   -6.259328|   -8.812660|    2.051985|
|         266|  7.1306e+00|  4.2627e-09|  7.6965e-01|  5.0000e-01|  5.0000e-01|  5.0000e-01|   -5.998555|   -6.130604|   -6.645451|   -6.319460|   -6.259800|   -8.812503|    2.052026|
|         267|  7.1296e+00|  4.2627e-09|  7.6965e-01|  5.0000e-01|  5.0000e-01|  5.0000e-01|   -5.999001|   -6.131325|   -6.645553|   -6.319806|   -6.260269|   -8.812345|    2.052067|
|         268|  7.1286e+00|  4.2626e-09|  7.6965e-01|  5.0000e-01|  5.0000e-01|  5.0000e-01|   -5.999442|   -6.132042|   -6.645653|   -6.320148|   -6.260734|   -8.812187|    2.052108|
|         269|  7.1270e+00|  4.2626e-09|  7.6965e-01|  5.0000e-01|  5.0000e-01|  5.0000e-01|   -5.999877|   -6.132754|   -6.645749|   -6.320484|   -6.261196|   -8.812028|    2.052149|
|         270|  7.1254e+00|  4.2626e-09|  7.6965e-01|  5.0000e-01|  5.0000e-01|  5.0000e-01|   -6.000306|   -6.133462|   -6.645844|   -6.320814|   -6.261654|   -8.811869|    2.052190|
|         271|  7.1242e+00|  4.2625e-09|  7.6965e-01|  5.0000e-01|  5.0000e-01|  5.0000e-01|   -6.000730|   -6.134165|   -6.645936|   -6.321140|   -6.262109|   -8.811709|    2.052231|
|         272|  7.1229e+00|  4.2625e-09|  7.6965e-01|  5.0000e-01|  5.0000e-01|  5.0000e-01|   -6.001149|   -6.134863|   -6.646025|   -6.321461|   -6.262560|   -8.811548|    2.052272|
|         273|  7.1213e+00|  4.2625e-09|  7.6965e-01|  5.0000e-01|  5.0000e-01|  5.0000e-01|   -6.001563|   -6.135557|   -6.646113|   -6.321778|   -6.263009|   -8.811386|    2.052313|
|         274|  7.1198e+00|  4.2624e-09|  7.6965e-01|  5.0000e-01|  5.0000e-01|  5.0000e-01|   -6.001972|   -6.136246|   -6.646197|   -6.322090|   -6.263455|   -8.811224|    2.052355|
|         275|  7.1182e+00|  4.2624e-09|  7.6965e-01|  5.0000e-01|  5.0000e-01|  5.0000e-01|   -6.002375|   -6.136930|   -6.646280|   -6.322397|   -6.263897|   -8.811062|    2.052396|
|         276|  7.1174e+00|  4.2624e-09|  7.6965e-01|  5.0000e-01|  5.0000e-01|  5.0000e-01|   -6.002773|   -6.137609|   -6.646360|   -6.322699|   -6.264336|   -8.810899|    2.052437|
|         277|  7.1171e+00|  4.2623e-09|  7.6965e-01|  5.0000e-01|  5.0000e-01|  5.0000e-01|   -6.003165|   -6.138283|   -6.646438|   -6.322997|   -6.264772|   -8.810735|    2.052479|
|         278|  7.1162e+00|  4.2623e-09|  7.6965e-01|  5.0000e-01|  5.0000e-01|  5.0000e-01|   -6.003553|   -6.138953|   -6.646514|   -6.323290|   -6.265205|   -8.810571|    2.052520|
|         279|  7.1155e+00|  4.2622e-09|  7.6965e-01|  5.0000e-01|  5.0000e-01|  5.0000e-01|   -6.003935|   -6.139617|   -6.646588|   -6.323578|   -6.265634|   -8.810406|    2.052562|
|         280|  7.1142e+00|  4.2622e-09|  7.6965e-01|  5.0000e-01|  5.0000e-01|  5.0000e-01|   -6.004310|   -6.140275|   -6.646658|   -6.323861|   -6.266060|   -8.810241|    2.052604|
|         281|  7.1126e+00|  4.2622e-09|  7.6965e-01|  5.0000e-01|  5.0000e-01|  5.0000e-01|   -6.004680|   -6.140928|   -6.646727|   -6.324139|   -6.266481|   -8.810075|    2.052645|
|         282|  7.1116e+00|  4.2621e-09|  7.6965e-01|  5.0000e-01|  5.0000e-01|  5.0000e-01|   -6.005043|   -6.141576|   -6.646792|   -6.324410|   -6.266899|   -8.809909|    2.052687|
|         283|  7.1108e+00|  4.2621e-09|  7.6965e-01|  5.0000e-01|  5.0000e-01|  5.0000e-01|   -6.005401|   -6.142218|   -6.646855|   -6.324676|   -6.267313|   -8.809742|    2.052729|
|         284|  7.1096e+00|  4.2621e-09|  7.6965e-01|  5.0000e-01|  5.0000e-01|  5.0000e-01|   -6.005752|   -6.142854|   -6.646916|   -6.324938|   -6.267723|   -8.809575|    2.052771|
|         285|  7.1089e+00|  4.2620e-09|  7.6965e-01|  5.0000e-01|  5.0000e-01|  5.0000e-01|   -6.006098|   -6.143484|   -6.646973|   -6.325194|   -6.268129|   -8.809407|    2.052813|
|         286|  7.1077e+00|  4.2620e-09|  7.6965e-01|  5.0000e-01|  5.0000e-01|  5.0000e-01|   -6.006438|   -6.144108|   -6.647027|   -6.325445|   -6.268532|   -8.809239|    2.052855|
|         287|  7.1069e+00|  4.2620e-09|  7.6965e-01|  5.0000e-01|  5.0000e-01|  5.0000e-01|   -6.006771|   -6.144725|   -6.647078|   -6.325691|   -6.268930|   -8.809071|    2.052897|
|         288|  7.1056e+00|  4.2619e-09|  7.6965e-01|  5.0000e-01|  5.0000e-01|  5.0000e-01|   -6.007099|   -6.145336|   -6.647126|   -6.325932|   -6.269325|   -8.808902|    2.052939|
|         289|  7.1042e+00|  4.2619e-09|  7.6965e-01|  5.0000e-01|  5.0000e-01|  5.0000e-01|   -6.007420|   -6.145941|   -6.647172|   -6.326166|   -6.269715|   -8.808733|    2.052981|
|         290|  7.1031e+00|  4.2619e-09|  7.6965e-01|  5.0000e-01|  5.0000e-01|  5.0000e-01|   -6.007734|   -6.146539|   -6.647214|   -6.326395|   -6.270100|   -8.808564|    2.053023|
|         291|  7.1020e+00|  4.2618e-09|  7.6965e-01|  5.0000e-01|  5.0000e-01|  5.0000e-01|   -6.008042|   -6.147130|   -6.647253|   -6.326619|   -6.270482|   -8.808394|    2.053065|
|         292|  7.1007e+00|  4.2618e-09|  7.6965e-01|  5.0000e-01|  5.0000e-01|  5.0000e-01|   -6.008343|   -6.147715|   -6.647290|   -6.326838|   -6.270860|   -8.808223|    2.053108|
|         293|  7.0993e+00|  4.2618e-09|  7.6965e-01|  5.0000e-01|  5.0000e-01|  5.0000e-01|   -6.008638|   -6.148293|   -6.647323|   -6.327051|   -6.271233|   -8.808053|    2.053150|
|         294|  7.1003e+00|  4.2617e-09|  7.6965e-01|  5.0000e-01|  5.0000e-01|  5.0000e-01|   -6.008927|   -6.148864|   -6.647353|   -6.327258|   -6.271601|   -8.807882|    2.053192|
|         295|  7.1002e+00|  4.2617e-09|  7.6965e-01|  5.0000e-01|  5.0000e-01|  5.0000e-01|   -6.009209|   -6.149427|   -6.647380|   -6.327460|   -6.271966|   -8.807711|    2.053235|
|         296|  7.0999e+00|  4.2617e-09|  7.6965e-01|  5.0000e-01|  5.0000e-01|  5.0000e-01|   -6.009485|   -6.149984|   -6.647404|   -6.327656|   -6.272326|   -8.807539|    2.053277|
|         297|  7.0992e+00|  4.2616e-09|  7.6965e-01|  5.0000e-01|  5.0000e-01|  5.0000e-01|   -6.009753|   -6.150532|   -6.647425|   -6.327847|   -6.272681|   -8.807367|    2.053320|
|         298|  7.0981e+00|  4.2616e-09|  7.6965e-01|  5.0000e-01|  5.0000e-01|  5.0000e-01|   -6.010015|   -6.151074|   -6.647443|   -6.328031|   -6.273031|   -8.807195|    2.053362|
|         299|  7.0968e+00|  4.2616e-09|  7.6965e-01|  5.0000e-01|  5.0000e-01|  5.0000e-01|   -6.010269|   -6.151607|   -6.647457|   -6.328209|   -6.273376|   -8.807023|    2.053405|
|         300|  7.0957e+00|  4.2615e-09|  7.6965e-01|  5.0000e-01|  5.0000e-01|  5.0000e-01|   -6.010516|   -6.152133|   -6.647467|   -6.328381|   -6.273716|   -8.806850|    2.053448|
+-----------------------------------------------------------------------+
|        File Writing Summary       |              Filename             |
+-----------------------------------------------------------------------+
|SU2 binary restart                 |restart_flow.dat                   |
|Paraview                           |flow.vtu                           |
|Paraview surface                   |surface_flow.vtu                   |
+-----------------------------------------------------------------------+
+-------------------------------------------------------------------------------------------------------------------------------------------------------------------------------------+
|  Inner_Iter|   Time(sec)|      Min DT|      Max DT|     Min CFL|     Max CFL|     Avg CFL|    rms[Rho]|   rms[RhoU]|   rms[RhoV]|   rms[RhoW]|   rms[RhoE]|     rms[nu]|          CD|
+-------------------------------------------------------------------------------------------------------------------------------------------------------------------------------------+
|         301|  7.1707e+00|  4.2615e-09|  7.6965e-01|  5.0000e-01|  5.0000e-01|  5.0000e-01|   -6.010756|   -6.152651|   -6.647475|   -6.328547|   -6.274051|   -8.806677|    2.053490|
|         302|  7.1704e+00|  4.2615e-09|  7.6965e-01|  5.0000e-01|  5.0000e-01|  5.0000e-01|   -6.010987|   -6.153160|   -6.647478|   -6.328706|   -6.274380|   -8.806504|    2.053533|
|         303|  7.1703e+00|  4.2614e-09|  7.6965e-01|  5.0000e-01|  5.0000e-01|  5.0000e-01|   -6.011212|   -6.153662|   -6.647479|   -6.328860|   -6.274704|   -8.806331|    2.053576|
|         304|  7.1694e+00|  4.2614e-09|  7.6965e-01|  5.0000e-01|  5.0000e-01|  5.0000e-01|   -6.011429|   -6.154155|   -6.647477|   -6.329007|   -6.275023|   -8.806158|    2.053619|
|         305|  7.1682e+00|  4.2614e-09|  7.6965e-01|  5.0000e-01|  5.0000e-01|  5.0000e-01|   -6.011639|   -6.154639|   -6.647471|   -6.329148|   -6.275337|   -8.805984|    2.053661|
|         306|  7.1671e+00|  4.2613e-09|  7.6965e-01|  5.0000e-01|  5.0000e-01|  5.0000e-01|   -6.011841|   -6.155116|   -6.647462|   -6.329283|   -6.275645|   -8.805810|    2.053704|
|         307|  7.1653e+00|  4.2613e-09|  7.6965e-01|  5.0000e-01|  5.0000e-01|  5.0000e-01|   -6.012036|   -6.155583|   -6.647450|   -6.329412|   -6.275948|   -8.805636|    2.053747|
|         308|  7.1640e+00|  4.2612e-09|  7.6965e-01|  5.0000e-01|  5.0000e-01|  5.0000e-01|   -6.012223|   -6.156042|   -6.647435|   -6.329534|   -6.276245|   -8.805462|    2.053790|
|         309|  7.1625e+00|  4.2612e-09|  7.6965e-01|  5.0000e-01|  5.0000e-01|  5.0000e-01|   -6.012402|   -6.156492|   -6.647416|   -6.329649|   -6.276537|   -8.805288|    2.053833|
|         310|  7.1608e+00|  4.2612e-09|  7.6965e-01|  5.0000e-01|  5.0000e-01|  5.0000e-01|   -6.012574|   -6.156932|   -6.647395|   -6.329759|   -6.276823|   -8.805114|    2.053876|
|         311|  7.1594e+00|  4.2611e-09|  7.6965e-01|  5.0000e-01|  5.0000e-01|  5.0000e-01|   -6.012737|   -6.157364|   -6.647370|   -6.329861|   -6.277103|   -8.804939|    2.053919|
|         312|  7.1578e+00|  4.2611e-09|  7.6965e-01|  5.0000e-01|  5.0000e-01|  5.0000e-01|   -6.012892|   -6.157786|   -6.647341|   -6.329957|   -6.277377|   -8.804765|    2.053962|
|         313|  7.1565e+00|  4.2611e-09|  7.6965e-01|  5.0000e-01|  5.0000e-01|  5.0000e-01|   -6.013039|   -6.158198|   -6.647309|   -6.330045|   -6.277644|   -8.804590|    2.054005|
|         314|  7.1547e+00|  4.2610e-09|  7.6965e-01|  5.0000e-01|  5.0000e-01|  5.0000e-01|   -6.013176|   -6.158601|   -6.647274|   -6.330127|   -6.277905|   -8.804415|    2.054048|
|         315|  7.1529e+00|  4.2610e-09|  7.6965e-01|  5.0000e-01|  5.0000e-01|  5.0000e-01|   -6.013306|   -6.158994|   -6.647235|   -6.330201|   -6.278160|   -8.804240|    2.054092|
|         316|  7.1513e+00|  4.2610e-09|  7.6965e-01|  5.0000e-01|  5.0000e-01|  5.0000e-01|   -6.013426|   -6.159377|   -6.647193|   -6.330269|   -6.278408|   -8.804066|    2.054135|
|         317|  7.1497e+00|  4.2609e-09|  7.6965e-01|  5.0000e-01|  5.0000e-01|  5.0000e-01|   -6.013539|   -6.159751|   -6.647147|   -6.330329|   -6.278649|   -8.803891|    2.054178|
|         318|  7.1483e+00|  4.2609e-09|  7.6965e-01|  5.0000e-01|  5.0000e-01|  5.0000e-01|   -6.013643|   -6.160114|   -6.647098|   -6.330383|   -6.278885|   -8.803716|    2.054221|
|         319|  7.1470e+00|  4.2609e-09|  7.6965e-01|  5.0000e-01|  5.0000e-01|  5.0000e-01|   -6.013738|   -6.160466|   -6.647045|   -6.330429|   -6.279113|   -8.803541|    2.054264|
|         320|  7.1454e+00|  4.2608e-09|  7.6965e-01|  5.0000e-01|  5.0000e-01|  5.0000e-01|   -6.013824|   -6.160809|   -6.646989|   -6.330469|   -6.279335|   -8.803366|    2.054308|
|         321|  7.1442e+00|  4.2608e-09|  7.6965e-01|  5.0000e-01|  5.0000e-01|  5.0000e-01|   -6.013902|   -6.161141|   -6.646929|   -6.330501|   -6.279551|   -8.803192|    2.054351|
|         322|  7.1427e+00|  4.2608e-09|  7.6965e-01|  5.0000e-01|  5.0000e-01|  5.0000e-01|   -6.013971|   -6.161462|   -6.646866|   -6.330525|   -6.279759|   -8.803017|    2.054394|
|         323|  7.1412e+00|  4.2607e-09|  7.6965e-01|  5.0000e-01|  5.0000e-01|  5.0000e-01|   -6.014031|   -6.161773|   -6.646799|   -6.330543|   -6.279961|   -8.802842|    2.054438|
|         324|  7.1400e+00|  4.2607e-09|  7.6965e-01|  5.0000e-01|  5.0000e-01|  5.0000e-01|   -6.014083|   -6.162073|   -6.646729|   -6.330553|   -6.280157|   -8.802668|    2.054481|
|         325|  7.1384e+00|  4.2607e-09|  7.6965e-01|  5.0000e-01|  5.0000e-01|  5.0000e-01|   -6.014126|   -6.162363|   -6.646655|   -6.330556|   -6.280345|   -8.802493|    2.054525|
|         326|  7.1384e+00|  4.2606e-09|  7.6965e-01|  5.0000e-01|  5.0000e-01|  5.0000e-01|   -6.014160|   -6.162642|   -6.646578|   -6.330552|   -6.280526|   -8.802319|    2.054568|
|         327|  7.1377e+00|  4.2606e-09|  7.6965e-01|  5.0000e-01|  5.0000e-01|  5.0000e-01|   -6.014184|   -6.162910|   -6.646497|   -6.330540|   -6.280700|   -8.802145|    2.054611|
|         328|  7.1365e+00|  4.2606e-09|  7.6965e-01|  5.0000e-01|  5.0000e-01|  5.0000e-01|   -6.014200|   -6.163167|   -6.646413|   -6.330522|   -6.280867|   -8.801971|    2.054655|
|         329|  7.1351e+00|  4.2605e-09|  7.6965e-01|  5.0000e-01|  5.0000e-01|  5.0000e-01|   -6.014207|   -6.163413|   -6.646326|   -6.330495|   -6.281027|   -8.801797|    2.054698|
|         330|  7.1338e+00|  4.2605e-09|  7.6965e-01|  5.0000e-01|  5.0000e-01|  5.0000e-01|   -6.014204|   -6.163647|   -6.646234|   -6.330461|   -6.281180|   -8.801623|    2.054742|
|         331|  7.1324e+00|  4.2605e-09|  7.6965e-01|  5.0000e-01|  5.0000e-01|  5.0000e-01|   -6.014192|   -6.163871|   -6.646138|   -6.330419|   -6.281325|   -8.801449|    2.054785|
|         332|  7.1312e+00|  4.2604e-09|  7.6965e-01|  5.0000e-01|  5.0000e-01|  5.0000e-01|   -6.014171|   -6.164083|   -6.646040|   -6.330370|   -6.281462|   -8.801276|    2.054829|
|         333|  7.1300e+00|  4.2604e-09|  7.6965e-01|  5.0000e-01|  5.0000e-01|  5.0000e-01|   -6.014140|   -6.164284|   -6.645938|   -6.330313|   -6.281593|   -8.801103|    2.054872|
|         334|  7.1288e+00|  4.2604e-09|  7.6965e-01|  5.0000e-01|  5.0000e-01|  5.0000e-01|   -6.014101|   -6.164474|   -6.645832|   -6.330249|   -6.281716|   -8.800930|    2.054916|
|         335|  7.1273e+00|  4.2603e-09|  7.6965e-01|  5.0000e-01|  5.0000e-01|  5.0000e-01|   -6.014051|   -6.164652|   -6.645722|   -6.330177|   -6.281831|   -8.800757|    2.054960|
|         336|  7.1257e+00|  4.2603e-09|  7.6965e-01|  5.0000e-01|  5.0000e-01|  5.0000e-01|   -6.013993|   -6.164818|   -6.645608|   -6.330098|   -6.281939|   -8.800585|    2.055003|
|         337|  7.1245e+00|  4.2602e-09|  7.6965e-01|  5.0000e-01|  5.0000e-01|  5.0000e-01|   -6.013926|   -6.164973|   -6.645491|   -6.330012|   -6.282041|   -8.800413|    2.055047|
|         338|  7.1237e+00|  4.2602e-09|  7.6965e-01|  5.0000e-01|  5.0000e-01|  5.0000e-01|   -6.013850|   -6.165116|   -6.645371|   -6.329917|   -6.282134|   -8.800241|    2.055090|
|         339|  7.1224e+00|  4.2602e-09|  7.6965e-01|  5.0000e-01|  5.0000e-01|  5.0000e-01|   -6.013765|   -6.165248|   -6.645247|   -6.329815|   -6.282220|   -8.800070|    2.055134|
|         340|  7.1211e+00|  4.2601e-09|  7.6965e-01|  5.0000e-01|  5.0000e-01|  5.0000e-01|   -6.013670|   -6.165368|   -6.645121|   -6.329706|   -6.282299|   -8.799899|    2.055178|
|         341|  7.1202e+00|  4.2601e-09|  7.6965e-01|  5.0000e-01|  5.0000e-01|  5.0000e-01|   -6.013567|   -6.165476|   -6.644991|   -6.329589|   -6.282370|   -8.799728|    2.055221|
|         342|  7.1192e+00|  4.2601e-09|  7.6965e-01|  5.0000e-01|  5.0000e-01|  5.0000e-01|   -6.013454|   -6.165572|   -6.644858|   -6.329465|   -6.282434|   -8.799557|    2.055265|
|         343|  7.1184e+00|  4.2600e-09|  7.6965e-01|  5.0000e-01|  5.0000e-01|  5.0000e-01|   -6.013333|   -6.165656|   -6.644721|   -6.329334|   -6.282491|   -8.799387|    2.055309|
|         344|  7.1169e+00|  4.2600e-09|  7.6965e-01|  5.0000e-01|  5.0000e-01|  5.0000e-01|   -6.013202|   -6.165729|   -6.644580|   -6.329195|   -6.282540|   -8.799218|    2.055352|
|         345|  7.1153e+00|  4.2600e-09|  7.6965e-01|  5.0000e-01|  5.0000e-01|  5.0000e-01|   -6.013063|   -6.165789|   -6.644437|   -6.329049|   -6.282582|   -8.799049|    2.055396|
|         346|  7.1138e+00|  4.2599e-09|  7.6965e-01|  5.0000e-01|  5.0000e-01|  5.0000e-01|   -6.012914|   -6.165837|   -6.644290|   -6.328896|   -6.282617|   -8.798880|    2.055440|
|         347|  7.1124e+00|  4.2599e-09|  7.6965e-01|  5.0000e-01|  5.0000e-01|  5.0000e-01|   -6.012757|   -6.165873|   -6.644139|   -6.328735|   -6.282644|   -8.798712|    2.055483|
|         348|  7.1111e+00|  4.2599e-09|  7.6965e-01|  5.0000e-01|  5.0000e-01|  5.0000e-01|   -6.012591|   -6.165898|   -6.643985|   -6.328567|   -6.282663|   -8.798544|    2.055527|
|         349|  7.1101e+00|  4.2598e-09|  7.6965e-01|  5.0000e-01|  5.0000e-01|  5.0000e-01|   -6.012416|   -6.165910|   -6.643828|   -6.328392|   -6.282675|   -8.798376|    2.055571|
[...]
|        9551|  6.6553e+00|  4.0048e-09|  7.6965e-01|  5.0000e-01|  5.0000e-01|  5.0000e-01|   -5.771880|   -5.875471|   -6.536206|   -6.099633|   -6.058857|   -8.587264|    2.046882|
|        9552|  6.6553e+00|  4.0048e-09|  7.6965e-01|  5.0000e-01|  5.0000e-01|  5.0000e-01|   -5.772071|   -5.875563|   -6.536304|   -6.099858|   -6.058937|   -8.587450|    2.046895|
|        9553|  6.6552e+00|  4.0048e-09|  7.6965e-01|  5.0000e-01|  5.0000e-01|  5.0000e-01|   -5.772265|   -5.875659|   -6.536404|   -6.100084|   -6.059020|   -8.587636|    2.046907|
|        9554|  6.6552e+00|  4.0048e-09|  7.6965e-01|  5.0000e-01|  5.0000e-01|  5.0000e-01|   -5.772463|   -5.875758|   -6.536504|   -6.100314|   -6.059106|   -8.587824|    2.046920|
|        9555|  6.6552e+00|  4.0047e-09|  7.6965e-01|  5.0000e-01|  5.0000e-01|  5.0000e-01|   -5.772664|   -5.875861|   -6.536607|   -6.100546|   -6.059194|   -8.588012|    2.046933|
|        9556|  6.6552e+00|  4.0047e-09|  7.6965e-01|  5.0000e-01|  5.0000e-01|  5.0000e-01|   -5.772868|   -5.875968|   -6.536710|   -6.100781|   -6.059286|   -8.588202|    2.046946|
|        9557|  6.6551e+00|  4.0047e-09|  7.6965e-01|  5.0000e-01|  5.0000e-01|  5.0000e-01|   -5.773076|   -5.876078|   -6.536815|   -6.101018|   -6.059380|   -8.588392|    2.046960|
|        9558|  6.6551e+00|  4.0047e-09|  7.6965e-01|  5.0000e-01|  5.0000e-01|  5.0000e-01|   -5.773287|   -5.876192|   -6.536922|   -6.101258|   -6.059478|   -8.588584|    2.046973|
|        9559|  6.6551e+00|  4.0046e-09|  7.6965e-01|  5.0000e-01|  5.0000e-01|  5.0000e-01|   -5.773501|   -5.876310|   -6.537029|   -6.101500|   -6.059578|   -8.588777|    2.046986|
|        9560|  6.6551e+00|  4.0046e-09|  7.6965e-01|  5.0000e-01|  5.0000e-01|  5.0000e-01|   -5.773718|   -5.876431|   -6.537139|   -6.101745|   -6.059681|   -8.588970|    2.047000|
|        9561|  6.6550e+00|  4.0046e-09|  7.6965e-01|  5.0000e-01|  5.0000e-01|  5.0000e-01|   -5.773939|   -5.876556|   -6.537250|   -6.101993|   -6.059787|   -8.589165|    2.047014|
|        9562|  6.6550e+00|  4.0046e-09|  7.6965e-01|  5.0000e-01|  5.0000e-01|  5.0000e-01|   -5.774163|   -5.876684|   -6.537362|   -6.102244|   -6.059896|   -8.589361|    2.047028|
|        9563|  6.6550e+00|  4.0045e-09|  7.6965e-01|  5.0000e-01|  5.0000e-01|  5.0000e-01|   -5.774390|   -5.876817|   -6.537476|   -6.102497|   -6.060008|   -8.589557|    2.047042|
|        9564|  6.6550e+00|  4.0045e-09|  7.6965e-01|  5.0000e-01|  5.0000e-01|  5.0000e-01|   -5.774621|   -5.876952|   -6.537591|   -6.102753|   -6.060123|   -8.589755|    2.047056|
|        9565|  6.6550e+00|  4.0045e-09|  7.6965e-01|  5.0000e-01|  5.0000e-01|  5.0000e-01|   -5.774855|   -5.877091|   -6.537708|   -6.103011|   -6.060240|   -8.589953|    2.047070|
|        9566|  6.6550e+00|  4.0044e-09|  7.6965e-01|  5.0000e-01|  5.0000e-01|  5.0000e-01|   -5.775092|   -5.877234|   -6.537826|   -6.103271|   -6.060360|   -8.590152|    2.047084|
|        9567|  6.6550e+00|  4.0044e-09|  7.6965e-01|  5.0000e-01|  5.0000e-01|  5.0000e-01|   -5.775332|   -5.877380|   -6.537945|   -6.103534|   -6.060483|   -8.590353|    2.047099|
|        9568|  6.6550e+00|  4.0044e-09|  7.6965e-01|  5.0000e-01|  5.0000e-01|  5.0000e-01|   -5.775575|   -5.877530|   -6.538066|   -6.103799|   -6.060608|   -8.590554|    2.047113|
|        9569|  6.6550e+00|  4.0044e-09|  7.6965e-01|  5.0000e-01|  5.0000e-01|  5.0000e-01|   -5.775822|   -5.877683|   -6.538188|   -6.104067|   -6.060737|   -8.590756|    2.047128|
|        9570|  6.6549e+00|  4.0043e-09|  7.6965e-01|  5.0000e-01|  5.0000e-01|  5.0000e-01|   -5.776072|   -5.877840|   -6.538312|   -6.104337|   -6.060868|   -8.590959|    2.047143|
|        9571|  6.6549e+00|  4.0043e-09|  7.6965e-01|  5.0000e-01|  5.0000e-01|  5.0000e-01|   -5.776325|   -5.878000|   -6.538437|   -6.104610|   -6.061002|   -8.591163|    2.047158|
|        9572|  6.6549e+00|  4.0043e-09|  7.6965e-01|  5.0000e-01|  5.0000e-01|  5.0000e-01|   -5.776581|   -5.878164|   -6.538563|   -6.104885|   -6.061139|   -8.591368|    2.047173|
|        9573|  6.6549e+00|  4.0043e-09|  7.6965e-01|  5.0000e-01|  5.0000e-01|  5.0000e-01|   -5.776840|   -5.878331|   -6.538691|   -6.105163|   -6.061278|   -8.591573|    2.047188|
|        9574|  6.6549e+00|  4.0042e-09|  7.6965e-01|  5.0000e-01|  5.0000e-01|  5.0000e-01|   -5.777102|   -5.878502|   -6.538820|   -6.105444|   -6.061421|   -8.591780|    2.047204|
|        9575|  6.6548e+00|  4.0042e-09|  7.6965e-01|  5.0000e-01|  5.0000e-01|  5.0000e-01|   -5.777368|   -5.878677|   -6.538951|   -6.105727|   -6.061566|   -8.591987|    2.047219|
|        9576|  6.6548e+00|  4.0042e-09|  7.6965e-01|  5.0000e-01|  5.0000e-01|  5.0000e-01|   -5.777637|   -5.878855|   -6.539084|   -6.106012|   -6.061714|   -8.592195|    2.047235|
|        9577|  6.6548e+00|  4.0042e-09|  7.6965e-01|  5.0000e-01|  5.0000e-01|  5.0000e-01|   -5.777909|   -5.879037|   -6.539218|   -6.106300|   -6.061865|   -8.592404|    2.047250|
|        9578|  6.6548e+00|  4.0041e-09|  7.6965e-01|  5.0000e-01|  5.0000e-01|  5.0000e-01|   -5.778185|   -5.879222|   -6.539354|   -6.106590|   -6.062019|   -8.592614|    2.047266|
|        9579|  6.6548e+00|  4.0041e-09|  7.6965e-01|  5.0000e-01|  5.0000e-01|  5.0000e-01|   -5.778464|   -5.879411|   -6.539491|   -6.106884|   -6.062176|   -8.592825|    2.047282|
|        9580|  6.6548e+00|  4.0041e-09|  7.6965e-01|  5.0000e-01|  5.0000e-01|  5.0000e-01|   -5.778746|   -5.879604|   -6.539630|   -6.107179|   -6.062336|   -8.593037|    2.047298|
|        9581|  6.6548e+00|  4.0041e-09|  7.6965e-01|  5.0000e-01|  5.0000e-01|  5.0000e-01|   -5.779031|   -5.879800|   -6.539770|   -6.107477|   -6.062499|   -8.593249|    2.047314|
|        9582|  6.6547e+00|  4.0040e-09|  7.6965e-01|  5.0000e-01|  5.0000e-01|  5.0000e-01|   -5.779320|   -5.880000|   -6.539911|   -6.107778|   -6.062665|   -8.593463|    2.047330|
|        9583|  6.6547e+00|  4.0040e-09|  7.6965e-01|  5.0000e-01|  5.0000e-01|  5.0000e-01|   -5.779611|   -5.880204|   -6.540055|   -6.108081|   -6.062833|   -8.593677|    2.047347|
|        9584|  6.6547e+00|  4.0040e-09|  7.6965e-01|  5.0000e-01|  5.0000e-01|  5.0000e-01|   -5.779906|   -5.880411|   -6.540199|   -6.108386|   -6.063004|   -8.593892|    2.047363|
|        9585|  6.6547e+00|  4.0040e-09|  7.6965e-01|  5.0000e-01|  5.0000e-01|  5.0000e-01|   -5.780204|   -5.880622|   -6.540345|   -6.108694|   -6.063178|   -8.594107|    2.047380|
|        9586|  6.6547e+00|  4.0039e-09|  7.6965e-01|  5.0000e-01|  5.0000e-01|  5.0000e-01|   -5.780506|   -5.880837|   -6.540492|   -6.109004|   -6.063355|   -8.594324|    2.047397|
|        9587|  6.6546e+00|  4.0039e-09|  7.6965e-01|  5.0000e-01|  5.0000e-01|  5.0000e-01|   -5.780810|   -5.881055|   -6.540640|   -6.109317|   -6.063535|   -8.594541|    2.047413|
|        9588|  6.6546e+00|  4.0039e-09|  7.6965e-01|  5.0000e-01|  5.0000e-01|  5.0000e-01|   -5.781118|   -5.881277|   -6.540790|   -6.109632|   -6.063718|   -8.594759|    2.047430|
|        9589|  6.6546e+00|  4.0038e-09|  7.6965e-01|  5.0000e-01|  5.0000e-01|  5.0000e-01|   -5.781430|   -5.881503|   -6.540941|   -6.109950|   -6.063904|   -8.594978|    2.047448|
|        9590|  6.6545e+00|  4.0038e-09|  7.6965e-01|  5.0000e-01|  5.0000e-01|  5.0000e-01|   -5.781744|   -5.881733|   -6.541094|   -6.110271|   -6.064093|   -8.595198|    2.047465|
|        9591|  6.6545e+00|  4.0038e-09|  7.6965e-01|  5.0000e-01|  5.0000e-01|  5.0000e-01|   -5.782062|   -5.881966|   -6.541248|   -6.110594|   -6.064285|   -8.595418|    2.047482|
|        9592|  6.6545e+00|  4.0038e-09|  7.6965e-01|  5.0000e-01|  5.0000e-01|  5.0000e-01|   -5.782383|   -5.882203|   -6.541404|   -6.110920|   -6.064480|   -8.595639|    2.047499|
|        9593|  6.6545e+00|  4.0037e-09|  7.6965e-01|  5.0000e-01|  5.0000e-01|  5.0000e-01|   -5.782708|   -5.882444|   -6.541561|   -6.111248|   -6.064678|   -8.595861|    2.047517|
|        9594|  6.6545e+00|  4.0037e-09|  7.6965e-01|  5.0000e-01|  5.0000e-01|  5.0000e-01|   -5.783035|   -5.882688|   -6.541720|   -6.111579|   -6.064878|   -8.596084|    2.047535|
|        9595|  6.6544e+00|  4.0037e-09|  7.6965e-01|  5.0000e-01|  5.0000e-01|  5.0000e-01|   -5.783366|   -5.882937|   -6.541879|   -6.111912|   -6.065082|   -8.596307|    2.047552|
|        9596|  6.6544e+00|  4.0037e-09|  7.6965e-01|  5.0000e-01|  5.0000e-01|  5.0000e-01|   -5.783700|   -5.883189|   -6.542040|   -6.112248|   -6.065289|   -8.596531|    2.047570|
|        9597|  6.6543e+00|  4.0036e-09|  7.6965e-01|  5.0000e-01|  5.0000e-01|  5.0000e-01|   -5.784038|   -5.883444|   -6.542203|   -6.112587|   -6.065498|   -8.596756|    2.047588|
|        9598|  6.6543e+00|  4.0036e-09|  7.6965e-01|  5.0000e-01|  5.0000e-01|  5.0000e-01|   -5.784378|   -5.883704|   -6.542366|   -6.112928|   -6.065711|   -8.596982|    2.047606|
|        9599|  6.6543e+00|  4.0036e-09|  7.6965e-01|  5.0000e-01|  5.0000e-01|  5.0000e-01|   -5.784723|   -5.883967|   -6.542532|   -6.113272|   -6.065927|   -8.597208|    2.047625|
|        9600|  6.6543e+00|  4.0036e-09|  7.6965e-01|  5.0000e-01|  5.0000e-01|  5.0000e-01|   -5.785070|   -5.884234|   -6.542698|   -6.113619|   -6.066146|   -8.597435|    2.047643|
+-----------------------------------------------------------------------+
|        File Writing Summary       |              Filename             |
+-----------------------------------------------------------------------+
|SU2 binary restart                 |restart_flow.dat                   |
|Paraview                           |flow.vtu                           |
|Paraview surface                   |surface_flow.vtu                   |
+-----------------------------------------------------------------------+
+-------------------------------------------------------------------------------------------------------------------------------------------------------------------------------------+
|  Inner_Iter|   Time(sec)|      Min DT|      Max DT|     Min CFL|     Max CFL|     Avg CFL|    rms[Rho]|   rms[RhoU]|   rms[RhoV]|   rms[RhoW]|   rms[RhoE]|     rms[nu]|          CD|
+-------------------------------------------------------------------------------------------------------------------------------------------------------------------------------------+
|        9601|  6.6570e+00|  4.0035e-09|  7.6965e-01|  5.0000e-01|  5.0000e-01|  5.0000e-01|   -5.785421|   -5.884504|   -6.542867|   -6.113968|   -6.066367|   -8.597663|    2.047661|
|        9602|  6.6570e+00|  4.0035e-09|  7.6965e-01|  5.0000e-01|  5.0000e-01|  5.0000e-01|   -5.785775|   -5.884779|   -6.543037|   -6.114320|   -6.066592|   -8.597891|    2.047680|
|        9603|  6.6570e+00|  4.0035e-09|  7.6965e-01|  5.0000e-01|  5.0000e-01|  5.0000e-01|   -5.786133|   -5.885057|   -6.543209|   -6.114674|   -6.066820|   -8.598120|    2.047699|
|        9604|  6.6570e+00|  4.0035e-09|  7.6965e-01|  5.0000e-01|  5.0000e-01|  5.0000e-01|   -5.786493|   -5.885339|   -6.543382|   -6.115031|   -6.067051|   -8.598350|    2.047717|
|        9605|  6.6570e+00|  4.0034e-09|  7.6965e-01|  5.0000e-01|  5.0000e-01|  5.0000e-01|   -5.786858|   -5.885625|   -6.543557|   -6.115391|   -6.067285|   -8.598581|    2.047736|
|        9606|  6.6570e+00|  4.0034e-09|  7.6965e-01|  5.0000e-01|  5.0000e-01|  5.0000e-01|   -5.787225|   -5.885915|   -6.543733|   -6.115753|   -6.067522|   -8.598812|    2.047755|
|        9607|  6.6570e+00|  4.0034e-09|  7.6965e-01|  5.0000e-01|  5.0000e-01|  5.0000e-01|   -5.787596|   -5.886209|   -6.543911|   -6.116117|   -6.067762|   -8.599044|    2.047775|
|        9608|  6.6570e+00|  4.0033e-09|  7.6965e-01|  5.0000e-01|  5.0000e-01|  5.0000e-01|   -5.787970|   -5.886506|   -6.544091|   -6.116484|   -6.068005|   -8.599276|    2.047794|
|        9609|  6.6570e+00|  4.0033e-09|  7.6965e-01|  5.0000e-01|  5.0000e-01|  5.0000e-01|   -5.788347|   -5.886808|   -6.544272|   -6.116854|   -6.068251|   -8.599509|    2.047813|
|        9610|  6.6570e+00|  4.0033e-09|  7.6965e-01|  5.0000e-01|  5.0000e-01|  5.0000e-01|   -5.788728|   -5.887113|   -6.544454|   -6.117226|   -6.068500|   -8.599743|    2.047833|
|        9611|  6.6570e+00|  4.0033e-09|  7.6965e-01|  5.0000e-01|  5.0000e-01|  5.0000e-01|   -5.789112|   -5.887422|   -6.544638|   -6.117600|   -6.068752|   -8.599977|    2.047852|
|        9612|  6.6570e+00|  4.0032e-09|  7.6965e-01|  5.0000e-01|  5.0000e-01|  5.0000e-01|   -5.789500|   -5.887736|   -6.544823|   -6.117978|   -6.069007|   -8.600212|    2.047872|
|        9613|  6.6570e+00|  4.0032e-09|  7.6965e-01|  5.0000e-01|  5.0000e-01|  5.0000e-01|   -5.789891|   -5.888053|   -6.545010|   -6.118357|   -6.069266|   -8.600448|    2.047892|
|        9614|  6.6570e+00|  4.0032e-09|  7.6965e-01|  5.0000e-01|  5.0000e-01|  5.0000e-01|   -5.790285|   -5.888373|   -6.545198|   -6.118739|   -6.069527|   -8.600684|    2.047911|
|        9615|  6.6569e+00|  4.0032e-09|  7.6965e-01|  5.0000e-01|  5.0000e-01|  5.0000e-01|   -5.790683|   -5.888698|   -6.545387|   -6.119124|   -6.069791|   -8.600920|    2.047931|
|        9616|  6.6569e+00|  4.0031e-09|  7.6965e-01|  5.0000e-01|  5.0000e-01|  5.0000e-01|   -5.791084|   -5.889027|   -6.545577|   -6.119510|   -6.070058|   -8.601158|    2.047952|
|        9617|  6.6569e+00|  4.0031e-09|  7.6965e-01|  5.0000e-01|  5.0000e-01|  5.0000e-01|   -5.791488|   -5.889359|   -6.545769|   -6.119900|   -6.070328|   -8.601395|    2.047972|
|        9618|  6.6569e+00|  4.0031e-09|  7.6965e-01|  5.0000e-01|  5.0000e-01|  5.0000e-01|   -5.791895|   -5.889695|   -6.545963|   -6.120291|   -6.070602|   -8.601634|    2.047992|
|        9619|  6.6569e+00|  4.0031e-09|  7.6965e-01|  5.0000e-01|  5.0000e-01|  5.0000e-01|   -5.792306|   -5.890035|   -6.546157|   -6.120685|   -6.070878|   -8.601873|    2.048012|
|        9620|  6.6569e+00|  4.0030e-09|  7.6965e-01|  5.0000e-01|  5.0000e-01|  5.0000e-01|   -5.792720|   -5.890379|   -6.546353|   -6.121081|   -6.071157|   -8.602112|    2.048033|
|        9621|  6.6569e+00|  4.0030e-09|  7.6965e-01|  5.0000e-01|  5.0000e-01|  5.0000e-01|   -5.793138|   -5.890727|   -6.546551|   -6.121480|   -6.071439|   -8.602352|    2.048054|
|        9622|  6.6568e+00|  4.0030e-09|  7.6965e-01|  5.0000e-01|  5.0000e-01|  5.0000e-01|   -5.793558|   -5.891079|   -6.546749|   -6.121880|   -6.071724|   -8.602593|    2.048074|
|        9623|  6.6568e+00|  4.0030e-09|  7.6965e-01|  5.0000e-01|  5.0000e-01|  5.0000e-01|   -5.793982|   -5.891434|   -6.546949|   -6.122284|   -6.072013|   -8.602834|    2.048095|
|        9624|  6.6568e+00|  4.0029e-09|  7.6965e-01|  5.0000e-01|  5.0000e-01|  5.0000e-01|   -5.794409|   -5.891794|   -6.547151|   -6.122689|   -6.072304|   -8.603075|    2.048116|
|        9625|  6.6568e+00|  4.0029e-09|  7.6965e-01|  5.0000e-01|  5.0000e-01|  5.0000e-01|   -5.794840|   -5.892157|   -6.547354|   -6.123098|   -6.072598|   -8.603317|    2.048137|
|        9626|  6.6568e+00|  4.0029e-09|  7.6965e-01|  5.0000e-01|  5.0000e-01|  5.0000e-01|   -5.795274|   -5.892524|   -6.547558|   -6.123508|   -6.072895|   -8.603559|    2.048158|
|        9627|  6.6568e+00|  4.0029e-09|  7.6965e-01|  5.0000e-01|  5.0000e-01|  5.0000e-01|   -5.795711|   -5.892895|   -6.547763|   -6.123921|   -6.073195|   -8.603802|    2.048180|
|        9628|  6.6568e+00|  4.0028e-09|  7.6965e-01|  5.0000e-01|  5.0000e-01|  5.0000e-01|   -5.796152|   -5.893270|   -6.547970|   -6.124336|   -6.073499|   -8.604045|    2.048201|
|        9629|  6.6567e+00|  4.0028e-09|  7.6965e-01|  5.0000e-01|  5.0000e-01|  5.0000e-01|   -5.796596|   -5.893649|   -6.548178|   -6.124754|   -6.073805|   -8.604288|    2.048222|
|        9630|  6.6567e+00|  4.0028e-09|  7.6965e-01|  5.0000e-01|  5.0000e-01|  5.0000e-01|   -5.797044|   -5.894032|   -6.548388|   -6.125174|   -6.074115|   -8.604532|    2.048244|
|        9631|  6.6567e+00|  4.0028e-09|  7.6965e-01|  5.0000e-01|  5.0000e-01|  5.0000e-01|   -5.797494|   -5.894418|   -6.548599|   -6.125597|   -6.074427|   -8.604777|    2.048266|
|        9632|  6.6567e+00|  4.0027e-09|  7.6965e-01|  5.0000e-01|  5.0000e-01|  5.0000e-01|   -5.797948|   -5.894809|   -6.548811|   -6.126022|   -6.074743|   -8.605021|    2.048287|
|        9633|  6.6567e+00|  4.0027e-09|  7.6965e-01|  5.0000e-01|  5.0000e-01|  5.0000e-01|   -5.798406|   -5.895203|   -6.549024|   -6.126449|   -6.075061|   -8.605266|    2.048309|
|        9634|  6.6567e+00|  4.0027e-09|  7.6965e-01|  5.0000e-01|  5.0000e-01|  5.0000e-01|   -5.798866|   -5.895601|   -6.549239|   -6.126878|   -6.075382|   -8.605511|    2.048331|
|        9635|  6.6567e+00|  4.0026e-09|  7.6965e-01|  5.0000e-01|  5.0000e-01|  5.0000e-01|   -5.799329|   -5.896002|   -6.549455|   -6.127310|   -6.075706|   -8.605757|    2.048353|
|        9636|  6.6566e+00|  4.0026e-09|  7.6965e-01|  5.0000e-01|  5.0000e-01|  5.0000e-01|   -5.799796|   -5.896408|   -6.549672|   -6.127743|   -6.076033|   -8.606003|    2.048375|
|        9637|  6.6566e+00|  4.0026e-09|  7.6965e-01|  5.0000e-01|  5.0000e-01|  5.0000e-01|   -5.800266|   -5.896817|   -6.549891|   -6.128180|   -6.076363|   -8.606249|    2.048398|
|        9638|  6.6566e+00|  4.0026e-09|  7.6965e-01|  5.0000e-01|  5.0000e-01|  5.0000e-01|   -5.800739|   -5.897230|   -6.550111|   -6.128618|   -6.076696|   -8.606495|    2.048420|
|        9639|  6.6566e+00|  4.0025e-09|  7.6965e-01|  5.0000e-01|  5.0000e-01|  5.0000e-01|   -5.801215|   -5.897647|   -6.550333|   -6.129058|   -6.077031|   -8.606742|    2.048443|
|        9640|  6.6566e+00|  4.0025e-09|  7.6965e-01|  5.0000e-01|  5.0000e-01|  5.0000e-01|   -5.801694|   -5.898067|   -6.550556|   -6.129501|   -6.077370|   -8.606989|    2.048465|
|        9641|  6.6565e+00|  4.0025e-09|  7.6965e-01|  5.0000e-01|  5.0000e-01|  5.0000e-01|   -5.802176|   -5.898491|   -6.550780|   -6.129946|   -6.077711|   -8.607236|    2.048488|

scontrol show job 1128942
JobId=1128942 JobName=m6_aoa24
   UserId=anthonyy(3152141) GroupId=anthonyy(3152141) MCS_label=N/A
   Priority=732253 Nice=0 Account=rrg-jphickey QOS=normal
   JobState=TIMEOUT Reason=TimeLimit Dependency=(null)
   Requeue=0 Restarts=0 BatchFlag=1 Reboot=0 ExitCode=0:15
   RunTime=18:00:06 TimeLimit=18:00:00 TimeMin=N/A
   SubmitTime=2026-03-06T01:59:32 EligibleTime=2026-03-06T01:59:32
   AccrueTime=2026-03-06T01:59:32
   StartTime=2026-03-06T02:46:05 EndTime=2026-03-06T20:46:11 Deadline=N/A
   SuspendTime=None SecsPreSuspend=0 LastSchedEval=2026-03-06T02:46:05 Scheduler=Main
   Partition=compute AllocNode:Sid=tri-login05:2615333
   ReqNodeList=(null) ExcNodeList=(null)
   NodeList=tri[0081,0105]
   BatchHost=tri0081
   NumNodes=2 NumCPUs=384 NumTasks=128 CPUs/Task=1 ReqB:S:C:T=0:0:*:*
   ReqTRES=cpu=128,mem=1534000M,node=2,billing=128
   AllocTRES=cpu=384,mem=1534000M,node=2,billing=384
   Socks/Node=* NtasksPerN:B:S:C=64:0:*:* CoreSpec=*
   MinCPUsNode=64 MinMemoryNode=767000M MinTmpDiskNode=0
   Features=(null) DelayBoot=00:00:00
   OverSubscribe=NO Contiguous=0 Licenses=(null) Network=(null)
   Command=/scratch/anthonyy/reentry/orion/cases/m6_aoa24/run.sh
   WorkDir=/scratch/anthonyy/reentry/orion/cases/m6_aoa24
   Comment=/opt/slurm/bin/sbatch --export=NONE --get-user-env=L run.sh 
   StdErr=/scratch/anthonyy/reentry/orion/cases/m6_aoa24/orion_1128942.err
   StdIn=/dev/null
   StdOut=/scratch/anthonyy/reentry/orion/cases/m6_aoa24/orion_1128942.out
   TresPerTask=cpu=1
   

sacct -j 1128942
JobID           JobName    Account    Elapsed  MaxVMSize     MaxRSS  SystemCPU    UserCPU ExitCode 
------------ ---------- ---------- ---------- ---------- ---------- ---------- ---------- -------- 
1128942        m6_aoa24 rrg-jphic+   18:00:06                         20:33:27 94-07:38:+      0:0 
1128942.bat+      batch rrg-jphic+   18:00:07          0      8712K  00:00.142  00:00.580     0:15 
1128942.ext+     extern rrg-jphic+   18:00:12          0          0  00:00.001   00:00:00      0:0 
1128942.0       SU2_CFD rrg-jphic+   18:00:06          0  11243048K   20:33:27 94-07:38:+     0:15 

