Nodes: tri[0938,1029]
Tasks: 128
NPN:   64

-------------------------------------------------------------------------
|    ___ _   _ ___                                                      |
|   / __| | | |_  )   Release 7.5.1 "Blackbird"                         |
|   \__ \ |_| |/ /                                                      |
|   |___/\___//___|   Suite (Computational Fluid Dynamics Code)         |
|                                                                       |
-------------------------------------------------------------------------
| SU2 Project Website: https://su2code.github.io                        |
|                                                                       |
| The SU2 Project is maintained by the SU2 Foundation                   |
| (http://su2foundation.org)                                            |
-------------------------------------------------------------------------
| Copyright 2012-2023, SU2 Contributors                                 |
|                                                                       |
| SU2 is free software; you can redistribute it and/or                  |
| modify it under the terms of the GNU Lesser General Public            |
| License as published by the Free Software Foundation; either          |
| version 2.1 of the License, or (at your option) any later version.    |
|                                                                       |
| SU2 is distributed in the hope that it will be useful,                |
| but WITHOUT ANY WARRANTY; without even the implied warranty of        |
| MERCHANTABILITY or FITNESS FOR A PARTICULAR PURPOSE. See the GNU      |
| Lesser General Public License for more details.                       |
|                                                                       |
| You should have received a copy of the GNU Lesser General Public      |
| License along with SU2. If not, see <http://www.gnu.org/licenses/>.   |
-------------------------------------------------------------------------

Parsing config file for zone 0

----------------- Physical Case Definition ( Zone 0 ) -------------------
Compressible RANS equations.
Turbulence model: Spalart-Allmaras-noft2
Hybrid RANS/LES: No Hybrid RANS/LES
Mach number: 6.
Angle of attack (AoA): 24 deg, and angle of sideslip (AoS): 0 deg.
Reynolds number: 6.86229e+08. Reference length 5.
Reading and writing binary SU2 native restart files.
Read flow solution from: restart_flow.dat.
Non-Dimensional simulation (V=1.0, Rho=1.0, T=1.0 at the farfield).
The reference area will be computed using y(2D) or z(3D) projection.
The semi-span will be computed using the max y(3D) value.
The reference length is 0.64607 m.
Reference origin for moment evaluation is (0.25, 0, 0).
Surface(s) where the force coefficients are evaluated: ORION_SURFACE.

Input mesh file name: fine.su2

--------------- Space Numerical Integration ( Zone 0 ) ------------------
Jameson-Schmidt-Turkel scheme (2nd order in space) for the flow inviscid terms.
JST viscous coefficients (2nd & 4th): 0.5, 0.02.
The method includes a grid stretching correction (p = 0.3).
Scalar upwind solver for the turbulence model.
First order integration in space.
Average of gradients with correction (viscous flow terms).
Average of gradients with correction (viscous turbulence terms).
Gradient for upwind reconstruction: Green-Gauss.
Gradient for viscous and source terms: Green-Gauss.

--------------- Time Numerical Integration  ( Zone 0 ) ------------------
Local time stepping (steady state simulation).
Euler implicit method for the flow equations.
FGMRES is used for solving the linear system.
Using a ILU(0) preconditioning.
Convergence criteria of the linear solver: 1e-06.
Max number of linear iterations: 100.
CFL adaptation. Factor down: 0.5, factor up: 1.1,
                lower limit: 0.05, upper limit: 0.5,
                acceptable linear residual: 0.001.
Courant-Friedrichs-Lewy number:     0.03
Euler implicit time integration for the turbulence model.

------------------ Convergence Criteria  ( Zone 0 ) ---------------------
Maximum number of solver subiterations: 999999.
Begin convergence monitoring at iteration 5.
Residual minimum value: 1e-8.
Cauchy series min. value: 1e-10.
Number of Cauchy elements: 100.
Begin windowed time average at iteration 0.

-------------------- Output Information ( Zone 0 ) ----------------------
File writing frequency: 
+------------------------------------+
|                     File| Frequency|
+------------------------------------+
|                  RESTART|       150|
|                 PARAVIEW|       150|
|         SURFACE_PARAVIEW|       150|
+------------------------------------+
Writing the convergence history file every 1 inner iterations.
Writing the screen convergence history every 1 inner iterations.
The tabular file format is CSV (.csv).
Convergence history file name: history.
Forces breakdown file name: forces_breakdown.dat.
Surface file name: surface_flow.
Volume file name: flow.
Restart file name: restart_flow.

------------- Config File Boundary Information ( Zone 0 ) ---------------
+-----------------------------------------------------------------------+
|                        Marker Type|                        Marker Name|
+-----------------------------------------------------------------------+
|                          Far-field|                           FARFIELD|
+-----------------------------------------------------------------------+
|                     Heat flux wall|                      ORION_SURFACE|
+-----------------------------------------------------------------------+

-------------------- Output Preprocessing ( Zone 0 ) --------------------

WARNING: SURFACE_PRESSURE_DROP can only be computed for at least 2 surfaces (outlet, inlet, ...)

Screen output fields: INNER_ITER, WALL_TIME, MIN_DELTA_TIME, MAX_DELTA_TIME, MIN_CFL, MAX_CFL, AVG_CFL, RMS_DENSITY, RMS_MOMENTUM-X, RMS_MOMENTUM-Y, RMS_MOMENTUM-Z, RMS_ENERGY, RMS_NU_TILDE, DRAG
History output group(s): ITER, RMS_RES
Convergence field(s): RMS_DENSITY
Warning: No (valid) fields chosen for time convergence monitoring. Time convergence monitoring inactive.
Volume output fields: MACH, PRESSURE, TEMPERATURE, DENSITY, HEAT_FLUX, Y_PLUS, COORDINATES, SOLUTION

------------------- Geometry Preprocessing ( Zone 0 ) -------------------
Three dimensional problem.
62211324 grid points before partitioning.
190879888 volume elements before partitioning.
2 surface markers.
4104 boundary elements in index 0 (Marker = FARFIELD).
1824836 boundary elements in index 1 (Marker = ORION_SURFACE).
Executing the partitioning functions.
Building the graph adjacency structure.
Calling ParMETIS... graph partitioning complete (4959327 edge cuts).
Distributing ParMETIS coloring.
Rebalancing vertices.
Rebalancing volume element connectivity.
Rebalancing markers and surface elements.
66952290 vertices including ghost points. 
197997438 interior elements including halo cells. 
103171259 tetrahedra.
94500655 prisms.
325524 pyramids.
Establishing MPI communication patterns.
Setting point connectivity.
Renumbering points (Reverse Cuthill McKee Ordering).
Recomputing point connectivity.
Setting element connectivity.
Checking the numerical grid orientation.
All volume elements are correctly orientend.
All surface elements are correctly orientend.
Identifying edges and vertices.
Setting the control volume structure.
Volume of the computational grid: 535693.
Searching for the closest normal neighbors to the surfaces.
Storing a mapping from global to local point index.
Compute the surface curvature.
Max K: 132.896. Mean K: 3.9104. Standard deviation K: 7.49569.
Checking for periodicity.
Computing mesh quality statistics for the dual control volumes.
+--------------------------------------------------------------+
|           Mesh Quality Metric|        Minimum|        Maximum|
+--------------------------------------------------------------+
|    Orthogonality Angle (deg.)|        53.0661|             90|
|     CV Face Area Aspect Ratio|        1.01143|        75298.5|
|           CV Sub-Volume Ratio|        1.00029|        45.0258|
+--------------------------------------------------------------+
Finding max control volume width.
Communicating number of neighbors.
Reference area = 11.531 m^2.
Semi-span length = 2.49999 m.
Wetted area = 57.9072 m^2.
Area projection in the x-plane = 19.6343 m^2, y-plane = 11.531 m^2, z-plane = 11.531 m^2.
Max. coordinate in the x-direction = 2.575 m, y-direction = 2.49999 m, z-direction = 2.49999 m.
Min. coordinate in the x-direction = -0.71 m, y-direction = -2.49999 m, z-direction = -2.5 m.
Computing wall distances.

-------------------- Solver Preprocessing ( Zone 0 ) --------------------
Viscous flow: Computing pressure using the ideal gas law
based on the free-stream temperature and a density computed
from the Reynolds number.
Force coefficients computed using free-stream values.

-- Models:
+------------------------------------------------------------------------------+
|          Viscosity Model|        Conductivity Model|              Fluid Model|
+------------------------------------------------------------------------------+
|               SUTHERLAND|          CONSTANT_PRANDTL|             STANDARD_AIR|
+------------------------------------------------------------------------------+
-- Fluid properties:
+------------------------------------------------------------------------------+
|                  Name|    Dim. value|    Ref. value|      Unit|Non-dim. value|
+------------------------------------------------------------------------------+
|        Ref. Viscosity|     1.716e-05|       2455.73|   N.s/m^2|   6.98773e-09|
|      Sutherland Temp.|        273.15|        288.15|         K|      0.947944|
|     Sutherland Const.|         110.4|        288.15|         K|      0.383134|
+------------------------------------------------------------------------------+
|        Prandtl (Lam.)|             -|             -|         -|          0.72|
|       Prandtl (Turb.)|             -|             -|         -|           0.9|
+------------------------------------------------------------------------------+
|          Gas Constant|       287.058|       14467.7|  N.m/kg.K|     0.0198413|
|      Spec. Heat Ratio|             -|             -|         -|           1.4|
+------------------------------------------------------------------------------+
-- Initial and free-stream conditions:
+------------------------------------------------------------------------------+
|                  Name|    Dim. value|    Ref. value|      Unit|Non-dim. value|
+------------------------------------------------------------------------------+
|       Static Pressure|       99485.6|   5.01407e+06|        Pa|     0.0198413|
|               Density|       1.20274|       1.20274|    kg/m^3|             1|
|           Temperature|        288.15|        288.15|         K|             1|
|          Total Energy|   2.29123e+06|   4.16887e+06|   m^2/s^2|      0.549603|
|            Velocity-X|       1865.26|       2041.78|       m/s|      0.913545|
|            Velocity-Y|             0|       2041.78|       m/s|             0|
|            Velocity-Z|       830.468|       2041.78|       m/s|      0.406737|
|    Velocity Magnitude|       2041.78|       2041.78|       m/s|             1|
+------------------------------------------------------------------------------+
|             Viscosity|    1.7893e-05|       2455.73|   N.s/m^2|    7.2862e-09|
|          Conductivity|             -|   3.55289e+07|   W/m^2.K|             -|
|     Turb. Kin. Energy|       15633.3|   4.16887e+06|   m^2/s^2|       0.00375|
|     Spec. Dissipation|   1.05085e+08|       2041.78|       1/s|       51467.1|
+------------------------------------------------------------------------------+
|           Mach Number|             -|             -|         -|             6|
|       Reynolds Number|             -|             -|         -|   6.86229e+08|
+------------------------------------------------------------------------------+
Initialize Jacobian structure (Navier-Stokes). MG level: 0.
Initialize Jacobian structure (SA model).

------------------- Numerics Preprocessing ( Zone 0 ) -------------------

----------------- Integration Preprocessing ( Zone 0 ) ------------------

------------------- Iteration Preprocessing ( Zone 0 ) ------------------
Euler/Navier-Stokes/RANS fluid iteration.

------------------------------ Begin Solver -----------------------------

Simulation Run using the Single-zone Driver
WARNING: SU2 was not compiled for an AVX-capable architecture. Performance could be better,
         see https://su2code.github.io/docs_v7/Build-SU2-Linux-MacOS/#compiler-optimizations
+-------------------------------------------------------------------------------------------------------------------------------------------------------------------------------------+
|  Inner_Iter|   Time(sec)|      Min DT|      Max DT|     Min CFL|     Max CFL|     Avg CFL|    rms[Rho]|   rms[RhoU]|   rms[RhoV]|   rms[RhoW]|   rms[RhoE]|     rms[nu]|          CD|
+-------------------------------------------------------------------------------------------------------------------------------------------------------------------------------------+
|           0|  8.3464e+00|  2.1573e-10|  4.6179e-02|  5.0000e-02|  5.0000e-02|  5.0000e-02|   -6.004895|   -6.103969|   -6.675373|   -6.337644|   -6.264484|   -8.779007|    2.057105|
|           1|  6.7362e+00|  3.5954e-10|  7.6965e-02|  5.5000e-02|  5.5000e-02|  5.5000e-02|   -6.004968|   -6.104038|   -6.675444|   -6.337713|   -6.264573|   -8.778966|    2.057102|
|           2|  6.1755e+00|  3.9550e-10|  8.4662e-02|  6.0500e-02|  6.0500e-02|  6.0500e-02|   -6.005087|   -6.104152|   -6.675556|   -6.337825|   -6.264718|   -8.778956|    2.057099|
|           3|  5.8436e+00|  4.3505e-10|  9.3128e-02|  6.6550e-02|  6.6550e-02|  6.6550e-02|   -6.005217|   -6.104277|   -6.675677|   -6.337947|   -6.264875|   -8.778945|    2.057096|
|           4|  5.6350e+00|  4.7855e-10|  1.0244e-01|  7.3205e-02|  7.3205e-02|  7.3205e-02|   -6.005359|   -6.104413|   -6.675807|   -6.338079|   -6.265046|   -8.778934|    2.057093|
|           5|  5.4993e+00|  5.2641e-10|  1.1269e-01|  8.0526e-02|  8.0526e-02|  8.0526e-02|   -6.005513|   -6.104563|   -6.675947|   -6.338223|   -6.265232|   -8.778921|    2.057089|
|           6|  5.4048e+00|  5.7905e-10|  1.2395e-01|  8.8578e-02|  8.8578e-02|  8.8578e-02|   -6.005682|   -6.104728|   -6.676098|   -6.338379|   -6.265434|   -8.778906|    2.057085|
|           7|  5.3382e+00|  6.3695e-10|  1.3635e-01|  9.7436e-02|  9.7436e-02|  9.7436e-02|   -6.005865|   -6.104908|   -6.676259|   -6.338549|   -6.265653|   -8.778891|    2.057080|
|           8|  5.2814e+00|  7.0065e-10|  1.4998e-01|  1.0718e-01|  1.0718e-01|  1.0718e-01|   -6.006064|   -6.105105|   -6.676431|   -6.338733|   -6.265891|   -8.778874|    2.057075|
|           9|  5.2247e+00|  7.7071e-10|  1.6498e-01|  1.1790e-01|  1.1790e-01|  1.1790e-01|   -6.006280|   -6.105321|   -6.676613|   -6.338931|   -6.266147|   -8.778855|    2.057070|
|          10|  5.1848e+00|  8.4778e-10|  1.8148e-01|  1.2969e-01|  1.2969e-01|  1.2969e-01|   -6.006514|   -6.105557|   -6.676807|   -6.339146|   -6.266424|   -8.778835|    2.057064|
|          11|  5.1545e+00|  9.3256e-10|  1.9963e-01|  1.4266e-01|  1.4266e-01|  1.4266e-01|   -6.006768|   -6.105815|   -6.677012|   -6.339377|   -6.266722|   -8.778813|    2.057057|
|          12|  5.1682e+00|  1.0258e-09|  2.1959e-01|  1.5692e-01|  1.5692e-01|  1.5692e-01|   -6.007043|   -6.106096|   -6.677227|   -6.339625|   -6.267043|   -8.778788|    2.057050|
|          13|  5.1799e+00|  1.1284e-09|  2.4155e-01|  1.7261e-01|  1.7261e-01|  1.7261e-01|   -6.007340|   -6.106404|   -6.677452|   -6.339892|   -6.267387|   -8.778762|    2.057041|
|          14|  5.1922e+00|  1.2412e-09|  2.6571e-01|  1.8987e-01|  1.8987e-01|  1.8987e-01|   -6.007660|   -6.106739|   -6.677685|   -6.340178|   -6.267756|   -8.778733|    2.057032|
|          15|  5.2026e+00|  1.3653e-09|  2.9228e-01|  2.0886e-01|  2.0886e-01|  2.0886e-01|   -6.008004|   -6.107103|   -6.677927|   -6.340484|   -6.268150|   -8.778702|    2.057023|
|          16|  5.2114e+00|  1.5019e-09|  3.2150e-01|  2.2975e-01|  2.2975e-01|  2.2975e-01|   -6.008374|   -6.107500|   -6.678174|   -6.340809|   -6.268569|   -8.778667|    2.057012|
|          17|  5.2243e+00|  1.6521e-09|  3.5365e-01|  2.5272e-01|  2.5272e-01|  2.5272e-01|   -6.008771|   -6.107930|   -6.678426|   -6.341154|   -6.269014|   -8.778630|    2.057000|
|          18|  5.2287e+00|  1.8173e-09|  3.8902e-01|  2.7800e-01|  2.7800e-01|  2.7800e-01|   -6.009194|   -6.108395|   -6.678678|   -6.341518|   -6.269483|   -8.778590|    2.056987|
|          19|  5.2355e+00|  1.9990e-09|  4.2792e-01|  3.0580e-01|  3.0580e-01|  3.0580e-01|   -6.009645|   -6.108898|   -6.678928|   -6.341902|   -6.269976|   -8.778546|    2.056972|
|          20|  5.2389e+00|  2.1989e-09|  4.7071e-01|  3.3637e-01|  3.3637e-01|  3.3637e-01|   -6.010123|   -6.109440|   -6.679172|   -6.342303|   -6.270492|   -8.778499|    2.056956|
|          21|  5.2455e+00|  2.4188e-09|  5.1778e-01|  3.7001e-01|  3.7001e-01|  3.7001e-01|   -6.010628|   -6.110022|   -6.679405|   -6.342719|   -6.271026|   -8.778447|    2.056938|
|          22|  5.2726e+00|  2.6606e-09|  5.6956e-01|  4.0701e-01|  4.0701e-01|  4.0701e-01|   -6.011158|   -6.110645|   -6.679621|   -6.343148|   -6.271575|   -8.778392|    2.056919|
|          23|  5.3038e+00|  2.9267e-09|  6.2652e-01|  4.4772e-01|  4.4772e-01|  4.4772e-01|   -6.011710|   -6.111306|   -6.679813|   -6.343585|   -6.272132|   -8.778332|    2.056898|
|          24|  5.3321e+00|  3.2193e-09|  6.8917e-01|  4.9249e-01|  4.9249e-01|  4.9249e-01|   -6.012279|   -6.112007|   -6.679973|   -6.344024|   -6.272690|   -8.778268|    2.056874|
|          25|  5.3551e+00|  3.5413e-09|  7.5809e-01|  5.0000e-01|  5.0000e-01|  5.0000e-01|   -6.012861|   -6.112741|   -6.680093|   -6.344458|   -6.273238|   -8.778199|    2.056848|
|          26|  5.3867e+00|  3.5953e-09|  7.6965e-01|  5.0000e-01|  5.0000e-01|  5.0000e-01|   -6.013447|   -6.113505|   -6.680161|   -6.344878|   -6.273762|   -8.778207|    2.056822|
|          27|  5.4073e+00|  3.5952e-09|  7.6965e-01|  5.0000e-01|  5.0000e-01|  5.0000e-01|   -6.014024|   -6.114263|   -6.680230|   -6.345288|   -6.274271|   -8.778230|    2.056795|
|          28|  5.4265e+00|  3.5952e-09|  7.6965e-01|  5.0000e-01|  5.0000e-01|  5.0000e-01|   -6.014591|   -6.115008|   -6.680309|   -6.345692|   -6.274770|   -8.778252|    2.056769|
|          29|  5.4433e+00|  3.5952e-09|  7.6965e-01|  5.0000e-01|  5.0000e-01|  5.0000e-01|   -6.015150|   -6.115740|   -6.680397|   -6.346088|   -6.275258|   -8.778274|    2.056742|
|          30|  5.4611e+00|  3.5952e-09|  7.6965e-01|  5.0000e-01|  5.0000e-01|  5.0000e-01|   -6.015697|   -6.116461|   -6.680495|   -6.346478|   -6.275735|   -8.778294|    2.056715|
|          31|  5.4736e+00|  3.5952e-09|  7.6965e-01|  5.0000e-01|  5.0000e-01|  5.0000e-01|   -6.016235|   -6.117170|   -6.680601|   -6.346859|   -6.276203|   -8.778315|    2.056689|
|          32|  5.4847e+00|  3.5951e-09|  7.6965e-01|  5.0000e-01|  5.0000e-01|  5.0000e-01|   -6.016764|   -6.117869|   -6.680716|   -6.347234|   -6.276661|   -8.778334|    2.056662|
|          33|  5.4976e+00|  3.5951e-09|  7.6965e-01|  5.0000e-01|  5.0000e-01|  5.0000e-01|   -6.017283|   -6.118557|   -6.680838|   -6.347603|   -6.277110|   -8.778353|    2.056636|
|          34|  5.5083e+00|  3.5951e-09|  7.6965e-01|  5.0000e-01|  5.0000e-01|  5.0000e-01|   -6.017793|   -6.119237|   -6.680966|   -6.347965|   -6.277552|   -8.778371|    2.056609|
|          35|  5.5159e+00|  3.5951e-09|  7.6965e-01|  5.0000e-01|  5.0000e-01|  5.0000e-01|   -6.018294|   -6.119907|   -6.681101|   -6.348320|   -6.277986|   -8.778389|    2.056582|
|          36|  5.5249e+00|  3.5951e-09|  7.6965e-01|  5.0000e-01|  5.0000e-01|  5.0000e-01|   -6.018788|   -6.120569|   -6.681242|   -6.348671|   -6.278413|   -8.778406|    2.056555|
|          37|  5.5332e+00|  3.5951e-09|  7.6965e-01|  5.0000e-01|  5.0000e-01|  5.0000e-01|   -6.019274|   -6.121225|   -6.681389|   -6.349015|   -6.278835|   -8.778422|    2.056529|
|          38|  5.5408e+00|  3.5950e-09|  7.6965e-01|  5.0000e-01|  5.0000e-01|  5.0000e-01|   -6.019753|   -6.121873|   -6.681540|   -6.349356|   -6.279251|   -8.778438|    2.056502|
|          39|  5.5484e+00|  3.5950e-09|  7.6965e-01|  5.0000e-01|  5.0000e-01|  5.0000e-01|   -6.020226|   -6.122515|   -6.681697|   -6.349691|   -6.279664|   -8.778453|    2.056475|
|          40|  5.5563e+00|  3.5950e-09|  7.6965e-01|  5.0000e-01|  5.0000e-01|  5.0000e-01|   -6.020692|   -6.123153|   -6.681857|   -6.350023|   -6.280072|   -8.778468|    2.056448|
|          41|  5.5632e+00|  3.5950e-09|  7.6965e-01|  5.0000e-01|  5.0000e-01|  5.0000e-01|   -6.021153|   -6.123785|   -6.682022|   -6.350351|   -6.280478|   -8.778481|    2.056421|
|          42|  5.5699e+00|  3.5950e-09|  7.6965e-01|  5.0000e-01|  5.0000e-01|  5.0000e-01|   -6.021610|   -6.124414|   -6.682190|   -6.350677|   -6.280881|   -8.778495|    2.056394|
|          43|  5.5778e+00|  3.5949e-09|  7.6965e-01|  5.0000e-01|  5.0000e-01|  5.0000e-01|   -6.022062|   -6.125040|   -6.682361|   -6.351000|   -6.281284|   -8.778507|    2.056367|
|          44|  5.5865e+00|  3.5949e-09|  7.6965e-01|  5.0000e-01|  5.0000e-01|  5.0000e-01|   -6.022511|   -6.125662|   -6.682535|   -6.351321|   -6.281685|   -8.778520|    2.056340|
|          45|  5.5931e+00|  3.5949e-09|  7.6965e-01|  5.0000e-01|  5.0000e-01|  5.0000e-01|   -6.022956|   -6.126282|   -6.682712|   -6.351640|   -6.282086|   -8.778531|    2.056313|
|          46|  5.5990e+00|  3.5949e-09|  7.6965e-01|  5.0000e-01|  5.0000e-01|  5.0000e-01|   -6.023398|   -6.126901|   -6.682891|   -6.351957|   -6.282487|   -8.778542|    2.056286|
|          47|  5.6024e+00|  3.5949e-09|  7.6965e-01|  5.0000e-01|  5.0000e-01|  5.0000e-01|   -6.023837|   -6.127517|   -6.683071|   -6.352272|   -6.282888|   -8.778552|    2.056259|
|          48|  5.6080e+00|  3.5949e-09|  7.6965e-01|  5.0000e-01|  5.0000e-01|  5.0000e-01|   -6.024274|   -6.128132|   -6.683252|   -6.352587|   -6.283291|   -8.778562|    2.056232|
|          49|  5.6135e+00|  3.5948e-09|  7.6965e-01|  5.0000e-01|  5.0000e-01|  5.0000e-01|   -6.024708|   -6.128746|   -6.683435|   -6.352900|   -6.283694|   -8.778571|    2.056205|
|          50|  5.6190e+00|  3.5948e-09|  7.6965e-01|  5.0000e-01|  5.0000e-01|  5.0000e-01|   -6.025141|   -6.129360|   -6.683618|   -6.353212|   -6.284098|   -8.778580|    2.056178|
|          51|  5.6231e+00|  3.5948e-09|  7.6965e-01|  5.0000e-01|  5.0000e-01|  5.0000e-01|   -6.025572|   -6.129973|   -6.683803|   -6.353524|   -6.284505|   -8.778588|    2.056151|
|          52|  5.6267e+00|  3.5948e-09|  7.6965e-01|  5.0000e-01|  5.0000e-01|  5.0000e-01|   -6.026001|   -6.130585|   -6.683987|   -6.353835|   -6.284913|   -8.778596|    2.056123|
|          53|  5.6289e+00|  3.5948e-09|  7.6965e-01|  5.0000e-01|  5.0000e-01|  5.0000e-01|   -6.026429|   -6.131197|   -6.684172|   -6.354146|   -6.285323|   -8.778603|    2.056096|
|          54|  5.6330e+00|  3.5947e-09|  7.6965e-01|  5.0000e-01|  5.0000e-01|  5.0000e-01|   -6.026857|   -6.131809|   -6.684357|   -6.354456|   -6.285735|   -8.778609|    2.056069|
|          55|  5.6362e+00|  3.5947e-09|  7.6965e-01|  5.0000e-01|  5.0000e-01|  5.0000e-01|   -6.027283|   -6.132420|   -6.684542|   -6.354766|   -6.286150|   -8.778615|    2.056042|
|          56|  5.6397e+00|  3.5947e-09|  7.6965e-01|  5.0000e-01|  5.0000e-01|  5.0000e-01|   -6.027709|   -6.133032|   -6.684727|   -6.355076|   -6.286567|   -8.778620|    2.056014|
|          57|  5.6434e+00|  3.5947e-09|  7.6965e-01|  5.0000e-01|  5.0000e-01|  5.0000e-01|   -6.028133|   -6.133643|   -6.684911|   -6.355385|   -6.286986|   -8.778625|    2.055987|
|          58|  5.6467e+00|  3.5947e-09|  7.6965e-01|  5.0000e-01|  5.0000e-01|  5.0000e-01|   -6.028557|   -6.134254|   -6.685095|   -6.355693|   -6.287407|   -8.778630|    2.055960|
|          59|  5.6491e+00|  3.5946e-09|  7.6965e-01|  5.0000e-01|  5.0000e-01|  5.0000e-01|   -6.028980|   -6.134865|   -6.685278|   -6.356001|   -6.287830|   -8.778634|    2.055932|
|          60|  5.6527e+00|  3.5946e-09|  7.6965e-01|  5.0000e-01|  5.0000e-01|  5.0000e-01|   -6.029402|   -6.135476|   -6.685461|   -6.356309|   -6.288255|   -8.778637|    2.055905|
|          61|  5.6554e+00|  3.5946e-09|  7.6965e-01|  5.0000e-01|  5.0000e-01|  5.0000e-01|   -6.029824|   -6.136085|   -6.685642|   -6.356615|   -6.288682|   -8.778640|    2.055877|
|          62|  5.6573e+00|  3.5946e-09|  7.6965e-01|  5.0000e-01|  5.0000e-01|  5.0000e-01|   -6.030243|   -6.136694|   -6.685822|   -6.356921|   -6.289111|   -8.778642|    2.055850|
|          63|  5.6605e+00|  3.5946e-09|  7.6965e-01|  5.0000e-01|  5.0000e-01|  5.0000e-01|   -6.030662|   -6.137302|   -6.686001|   -6.357226|   -6.289541|   -8.778644|    2.055823|
|          64|  5.6640e+00|  3.5946e-09|  7.6965e-01|  5.0000e-01|  5.0000e-01|  5.0000e-01|   -6.031080|   -6.137909|   -6.686179|   -6.357529|   -6.289972|   -8.778645|    2.055795|
|          65|  5.6685e+00|  3.5945e-09|  7.6965e-01|  5.0000e-01|  5.0000e-01|  5.0000e-01|   -6.031498|   -6.138515|   -6.686356|   -6.357832|   -6.290406|   -8.778646|    2.055768|
|          66|  5.6705e+00|  3.5945e-09|  7.6965e-01|  5.0000e-01|  5.0000e-01|  5.0000e-01|   -6.031914|   -6.139120|   -6.686531|   -6.358134|   -6.290840|   -8.778647|    2.055740|
|          67|  5.6715e+00|  3.5945e-09|  7.6965e-01|  5.0000e-01|  5.0000e-01|  5.0000e-01|   -6.032328|   -6.139724|   -6.686706|   -6.358434|   -6.291275|   -8.778647|    2.055713|
|          68|  5.6728e+00|  3.5945e-09|  7.6965e-01|  5.0000e-01|  5.0000e-01|  5.0000e-01|   -6.032741|   -6.140326|   -6.686879|   -6.358733|   -6.291711|   -8.778646|    2.055685|
|          69|  5.6748e+00|  3.5945e-09|  7.6965e-01|  5.0000e-01|  5.0000e-01|  5.0000e-01|   -6.033152|   -6.140926|   -6.687050|   -6.359030|   -6.292148|   -8.778645|    2.055658|
|          70|  5.6786e+00|  3.5944e-09|  7.6965e-01|  5.0000e-01|  5.0000e-01|  5.0000e-01|   -6.033561|   -6.141524|   -6.687219|   -6.359326|   -6.292584|   -8.778644|    2.055630|
|          71|  5.6799e+00|  3.5944e-09|  7.6965e-01|  5.0000e-01|  5.0000e-01|  5.0000e-01|   -6.033968|   -6.142120|   -6.687386|   -6.359619|   -6.293020|   -8.778642|    2.055602|
|          72|  5.6825e+00|  3.5944e-09|  7.6965e-01|  5.0000e-01|  5.0000e-01|  5.0000e-01|   -6.034372|   -6.142714|   -6.687552|   -6.359910|   -6.293457|   -8.778640|    2.055575|
|          73|  5.6836e+00|  3.5944e-09|  7.6965e-01|  5.0000e-01|  5.0000e-01|  5.0000e-01|   -6.034774|   -6.143305|   -6.687715|   -6.360199|   -6.293892|   -8.778637|    2.055547|
|          74|  5.6850e+00|  3.5944e-09|  7.6965e-01|  5.0000e-01|  5.0000e-01|  5.0000e-01|   -6.035174|   -6.143894|   -6.687877|   -6.360486|   -6.294328|   -8.778634|    2.055520|
|          75|  5.6867e+00|  3.5944e-09|  7.6965e-01|  5.0000e-01|  5.0000e-01|  5.0000e-01|   -6.035570|   -6.144480|   -6.688036|   -6.360770|   -6.294762|   -8.778631|    2.055492|
|          76|  5.6878e+00|  3.5943e-09|  7.6965e-01|  5.0000e-01|  5.0000e-01|  5.0000e-01|   -6.035963|   -6.145063|   -6.688194|   -6.361051|   -6.295196|   -8.778628|    2.055464|
|          77|  5.6895e+00|  3.5943e-09|  7.6965e-01|  5.0000e-01|  5.0000e-01|  5.0000e-01|   -6.036354|   -6.145643|   -6.688351|   -6.361330|   -6.295628|   -8.778624|    2.055437|
|          78|  5.6909e+00|  3.5943e-09|  7.6965e-01|  5.0000e-01|  5.0000e-01|  5.0000e-01|   -6.036741|   -6.146220|   -6.688506|   -6.361607|   -6.296060|   -8.778619|    2.055409|
|          79|  5.6925e+00|  3.5943e-09|  7.6965e-01|  5.0000e-01|  5.0000e-01|  5.0000e-01|   -6.037125|   -6.146793|   -6.688659|   -6.361880|   -6.296490|   -8.778615|    2.055381|
|          80|  5.6941e+00|  3.5943e-09|  7.6965e-01|  5.0000e-01|  5.0000e-01|  5.0000e-01|   -6.037505|   -6.147363|   -6.688809|   -6.362150|   -6.296919|   -8.778610|    2.055353|
|          81|  5.6952e+00|  3.5942e-09|  7.6965e-01|  5.0000e-01|  5.0000e-01|  5.0000e-01|   -6.037881|   -6.147930|   -6.688958|   -6.362417|   -6.297346|   -8.778605|    2.055326|
|          82|  5.6981e+00|  3.5942e-09|  7.6965e-01|  5.0000e-01|  5.0000e-01|  5.0000e-01|   -6.038252|   -6.148492|   -6.689104|   -6.362681|   -6.297771|   -8.778599|    2.055298|
|          83|  5.6999e+00|  3.5942e-09|  7.6965e-01|  5.0000e-01|  5.0000e-01|  5.0000e-01|   -6.038620|   -6.149051|   -6.689247|   -6.362941|   -6.298193|   -8.778593|    2.055270|
|          84|  5.7032e+00|  3.5942e-09|  7.6965e-01|  5.0000e-01|  5.0000e-01|  5.0000e-01|   -6.038982|   -6.149605|   -6.689389|   -6.363197|   -6.298613|   -8.778587|    2.055243|
|          85|  5.7042e+00|  3.5942e-09|  7.6965e-01|  5.0000e-01|  5.0000e-01|  5.0000e-01|   -6.039340|   -6.150155|   -6.689529|   -6.363450|   -6.299031|   -8.778581|    2.055215|
|          86|  5.7055e+00|  3.5942e-09|  7.6965e-01|  5.0000e-01|  5.0000e-01|  5.0000e-01|   -6.039693|   -6.150700|   -6.689666|   -6.363698|   -6.299446|   -8.778574|    2.055187|
|          87|  5.7071e+00|  3.5941e-09|  7.6965e-01|  5.0000e-01|  5.0000e-01|  5.0000e-01|   -6.040041|   -6.151241|   -6.689801|   -6.363943|   -6.299858|   -8.778567|    2.055159|
|          88|  5.7096e+00|  3.5941e-09|  7.6965e-01|  5.0000e-01|  5.0000e-01|  5.0000e-01|   -6.040383|   -6.151776|   -6.689934|   -6.364183|   -6.300266|   -8.778560|    2.055131|
|          89|  5.7111e+00|  3.5941e-09|  7.6965e-01|  5.0000e-01|  5.0000e-01|  5.0000e-01|   -6.040720|   -6.152307|   -6.690064|   -6.364419|   -6.300672|   -8.778553|    2.055104|
|          90|  5.7131e+00|  3.5941e-09|  7.6965e-01|  5.0000e-01|  5.0000e-01|  5.0000e-01|   -6.041051|   -6.152832|   -6.690193|   -6.364651|   -6.301074|   -8.778545|    2.055076|
|          91|  5.7135e+00|  3.5941e-09|  7.6965e-01|  5.0000e-01|  5.0000e-01|  5.0000e-01|   -6.041376|   -6.153352|   -6.690319|   -6.364878|   -6.301473|   -8.778537|    2.055048|
|          92|  5.7152e+00|  3.5940e-09|  7.6965e-01|  5.0000e-01|  5.0000e-01|  5.0000e-01|   -6.041695|   -6.153867|   -6.690443|   -6.365100|   -6.301868|   -8.778529|    2.055020|
|          93|  5.7163e+00|  3.5940e-09|  7.6965e-01|  5.0000e-01|  5.0000e-01|  5.0000e-01|   -6.042008|   -6.154376|   -6.690565|   -6.365317|   -6.302258|   -8.778520|    2.054992|
|          94|  5.7184e+00|  3.5940e-09|  7.6965e-01|  5.0000e-01|  5.0000e-01|  5.0000e-01|   -6.042314|   -6.154878|   -6.690685|   -6.365529|   -6.302645|   -8.778512|    2.054964|
|          95|  5.7203e+00|  3.5940e-09|  7.6965e-01|  5.0000e-01|  5.0000e-01|  5.0000e-01|   -6.042614|   -6.155375|   -6.690802|   -6.365736|   -6.303027|   -8.778503|    2.054937|
|          96|  5.7220e+00|  3.5940e-09|  7.6965e-01|  5.0000e-01|  5.0000e-01|  5.0000e-01|   -6.042907|   -6.155866|   -6.690917|   -6.365939|   -6.303406|   -8.778494|    2.054909|
|          97|  5.7227e+00|  3.5940e-09|  7.6965e-01|  5.0000e-01|  5.0000e-01|  5.0000e-01|   -6.043194|   -6.156350|   -6.691031|   -6.366136|   -6.303779|   -8.778485|    2.054881|
|          98|  5.7240e+00|  3.5939e-09|  7.6965e-01|  5.0000e-01|  5.0000e-01|  5.0000e-01|   -6.043474|   -6.156828|   -6.691142|   -6.366328|   -6.304149|   -8.778476|    2.054853|
|          99|  5.7244e+00|  3.5939e-09|  7.6965e-01|  5.0000e-01|  5.0000e-01|  5.0000e-01|   -6.043747|   -6.157299|   -6.691251|   -6.366514|   -6.304513|   -8.778467|    2.054825|
|         100|  5.7257e+00|  3.5939e-09|  7.6965e-01|  5.0000e-01|  5.0000e-01|  5.0000e-01|   -6.044013|   -6.157763|   -6.691359|   -6.366696|   -6.304873|   -8.778457|    2.054797|
|         101|  5.7270e+00|  3.5939e-09|  7.6965e-01|  5.0000e-01|  5.0000e-01|  5.0000e-01|   -6.044272|   -6.158221|   -6.691464|   -6.366872|   -6.305228|   -8.778448|    2.054769|
|         102|  5.7285e+00|  3.5939e-09|  7.6965e-01|  5.0000e-01|  5.0000e-01|  5.0000e-01|   -6.044524|   -6.158671|   -6.691567|   -6.367042|   -6.305578|   -8.778438|    2.054741|
|         103|  5.7299e+00|  3.5938e-09|  7.6965e-01|  5.0000e-01|  5.0000e-01|  5.0000e-01|   -6.044769|   -6.159115|   -6.691668|   -6.367207|   -6.305923|   -8.778428|    2.054713|
|         104|  5.7323e+00|  3.5938e-09|  7.6965e-01|  5.0000e-01|  5.0000e-01|  5.0000e-01|   -6.045006|   -6.159551|   -6.691767|   -6.367366|   -6.306263|   -8.778418|    2.054686|
|         105|  5.7342e+00|  3.5938e-09|  7.6965e-01|  5.0000e-01|  5.0000e-01|  5.0000e-01|   -6.045236|   -6.159979|   -6.691864|   -6.367519|   -6.306597|   -8.778408|    2.054658|
|         106|  5.7376e+00|  3.5938e-09|  7.6965e-01|  5.0000e-01|  5.0000e-01|  5.0000e-01|   -6.045458|   -6.160400|   -6.691958|   -6.367667|   -6.306926|   -8.778398|    2.054630|
|         107|  5.7397e+00|  3.5938e-09|  7.6965e-01|  5.0000e-01|  5.0000e-01|  5.0000e-01|   -6.045673|   -6.160814|   -6.692051|   -6.367808|   -6.307250|   -8.778388|    2.054602|
|         108|  5.7416e+00|  3.5938e-09|  7.6965e-01|  5.0000e-01|  5.0000e-01|  5.0000e-01|   -6.045881|   -6.161220|   -6.692141|   -6.367945|   -6.307568|   -8.778378|    2.054574|
|         109|  5.7422e+00|  3.5937e-09|  7.6965e-01|  5.0000e-01|  5.0000e-01|  5.0000e-01|   -6.046081|   -6.161619|   -6.692229|   -6.368075|   -6.307881|   -8.778367|    2.054546|
|         110|  5.7428e+00|  3.5937e-09|  7.6965e-01|  5.0000e-01|  5.0000e-01|  5.0000e-01|   -6.046274|   -6.162010|   -6.692315|   -6.368200|   -6.308189|   -8.778357|    2.054518|
|         111|  5.7441e+00|  3.5937e-09|  7.6965e-01|  5.0000e-01|  5.0000e-01|  5.0000e-01|   -6.046460|   -6.162393|   -6.692400|   -6.368319|   -6.308491|   -8.778346|    2.054490|
|         112|  5.7450e+00|  3.5937e-09|  7.6965e-01|  5.0000e-01|  5.0000e-01|  5.0000e-01|   -6.046639|   -6.162768|   -6.692482|   -6.368433|   -6.308788|   -8.778336|    2.054462|
|         113|  5.7458e+00|  3.5937e-09|  7.6965e-01|  5.0000e-01|  5.0000e-01|  5.0000e-01|   -6.046810|   -6.163136|   -6.692562|   -6.368540|   -6.309079|   -8.778325|    2.054434|
|         114|  5.7470e+00|  3.5936e-09|  7.6965e-01|  5.0000e-01|  5.0000e-01|  5.0000e-01|   -6.046974|   -6.163496|   -6.692640|   -6.368643|   -6.309365|   -8.778315|    2.054406|
|         115|  5.7478e+00|  3.5936e-09|  7.6965e-01|  5.0000e-01|  5.0000e-01|  5.0000e-01|   -6.047130|   -6.163847|   -6.692715|   -6.368739|   -6.309646|   -8.778304|    2.054378|
|         116|  5.7482e+00|  3.5936e-09|  7.6965e-01|  5.0000e-01|  5.0000e-01|  5.0000e-01|   -6.047280|   -6.164191|   -6.692789|   -6.368831|   -6.309921|   -8.778294|    2.054350|
|         117|  5.7488e+00|  3.5936e-09|  7.6965e-01|  5.0000e-01|  5.0000e-01|  5.0000e-01|   -6.047422|   -6.164528|   -6.692861|   -6.368917|   -6.310191|   -8.778283|    2.054323|
|         118|  5.7507e+00|  3.5936e-09|  7.6965e-01|  5.0000e-01|  5.0000e-01|  5.0000e-01|   -6.047557|   -6.164856|   -6.692931|   -6.368997|   -6.310456|   -8.778273|    2.054295|
|         119|  5.7509e+00|  3.5936e-09|  7.6965e-01|  5.0000e-01|  5.0000e-01|  5.0000e-01|   -6.047686|   -6.165176|   -6.692999|   -6.369072|   -6.310716|   -8.778262|    2.054267|
|         120|  5.7511e+00|  3.5935e-09|  7.6965e-01|  5.0000e-01|  5.0000e-01|  5.0000e-01|   -6.047807|   -6.165488|   -6.693065|   -6.369142|   -6.310970|   -8.778252|    2.054239|
|         121|  5.7514e+00|  3.5935e-09|  7.6965e-01|  5.0000e-01|  5.0000e-01|  5.0000e-01|   -6.047921|   -6.165793|   -6.693128|   -6.369207|   -6.311219|   -8.778242|    2.054211|
|         122|  5.7513e+00|  3.5935e-09|  7.6965e-01|  5.0000e-01|  5.0000e-01|  5.0000e-01|   -6.048028|   -6.166089|   -6.693190|   -6.369266|   -6.311462|   -8.778231|    2.054183|
|         123|  5.7517e+00|  3.5935e-09|  7.6965e-01|  5.0000e-01|  5.0000e-01|  5.0000e-01|   -6.048128|   -6.166377|   -6.693249|   -6.369319|   -6.311700|   -8.778221|    2.054155|
|         124|  5.7530e+00|  3.5935e-09|  7.6965e-01|  5.0000e-01|  5.0000e-01|  5.0000e-01|   -6.048221|   -6.166657|   -6.693307|   -6.369368|   -6.311933|   -8.778211|    2.054127|
|         125|  5.7529e+00|  3.5934e-09|  7.6965e-01|  5.0000e-01|  5.0000e-01|  5.0000e-01|   -6.048308|   -6.166930|   -6.693362|   -6.369411|   -6.312161|   -8.778200|    2.054099|
|         126|  5.7524e+00|  3.5934e-09|  7.6965e-01|  5.0000e-01|  5.0000e-01|  5.0000e-01|   -6.048387|   -6.167194|   -6.693415|   -6.369448|   -6.312383|   -8.778190|    2.054071|
|         127|  5.7529e+00|  3.5934e-09|  7.6965e-01|  5.0000e-01|  5.0000e-01|  5.0000e-01|   -6.048459|   -6.167450|   -6.693466|   -6.369481|   -6.312600|   -8.778180|    2.054043|
|         128|  5.7527e+00|  3.5934e-09|  7.6965e-01|  5.0000e-01|  5.0000e-01|  5.0000e-01|   -6.048524|   -6.167698|   -6.693514|   -6.369509|   -6.312812|   -8.778170|    2.054015|
|         129|  5.7531e+00|  3.5934e-09|  7.6965e-01|  5.0000e-01|  5.0000e-01|  5.0000e-01|   -6.048582|   -6.167938|   -6.693561|   -6.369531|   -6.313018|   -8.778160|    2.053987|
|         130|  5.7535e+00|  3.5934e-09|  7.6965e-01|  5.0000e-01|  5.0000e-01|  5.0000e-01|   -6.048634|   -6.168170|   -6.693605|   -6.369549|   -6.313219|   -8.778150|    2.053960|
|         131|  5.7542e+00|  3.5933e-09|  7.6965e-01|  5.0000e-01|  5.0000e-01|  5.0000e-01|   -6.048678|   -6.168393|   -6.693647|   -6.369561|   -6.313415|   -8.778140|    2.053932|
|         132|  5.7539e+00|  3.5933e-09|  7.6965e-01|  5.0000e-01|  5.0000e-01|  5.0000e-01|   -6.048715|   -6.168608|   -6.693687|   -6.369568|   -6.313605|   -8.778131|    2.053904|
|         133|  5.7536e+00|  3.5933e-09|  7.6965e-01|  5.0000e-01|  5.0000e-01|  5.0000e-01|   -6.048745|   -6.168815|   -6.693725|   -6.369570|   -6.313790|   -8.778121|    2.053876|
|         134|  5.7540e+00|  3.5933e-09|  7.6965e-01|  5.0000e-01|  5.0000e-01|  5.0000e-01|   -6.048769|   -6.169013|   -6.693761|   -6.369567|   -6.313969|   -8.778112|    2.053848|
|         135|  5.7537e+00|  3.5933e-09|  7.6965e-01|  5.0000e-01|  5.0000e-01|  5.0000e-01|   -6.048786|   -6.169203|   -6.693795|   -6.369559|   -6.314143|   -8.778102|    2.053820|
|         136|  5.7539e+00|  3.5933e-09|  7.6965e-01|  5.0000e-01|  5.0000e-01|  5.0000e-01|   -6.048795|   -6.169385|   -6.693827|   -6.369546|   -6.314312|   -8.778093|    2.053792|
|         137|  5.7547e+00|  3.5932e-09|  7.6965e-01|  5.0000e-01|  5.0000e-01|  5.0000e-01|   -6.048799|   -6.169559|   -6.693857|   -6.369528|   -6.314476|   -8.778084|    2.053765|
|         138|  5.7552e+00|  3.5932e-09|  7.6965e-01|  5.0000e-01|  5.0000e-01|  5.0000e-01|   -6.048796|   -6.169724|   -6.693885|   -6.369506|   -6.314635|   -8.778075|    2.053737|
|         139|  5.7554e+00|  3.5932e-09|  7.6965e-01|  5.0000e-01|  5.0000e-01|  5.0000e-01|   -6.048785|   -6.169880|   -6.693910|   -6.369478|   -6.314788|   -8.778066|    2.053709|
|         140|  5.7559e+00|  3.5932e-09|  7.6965e-01|  5.0000e-01|  5.0000e-01|  5.0000e-01|   -6.048768|   -6.170028|   -6.693934|   -6.369445|   -6.314935|   -8.778057|    2.053681|
|         141|  5.7563e+00|  3.5932e-09|  7.6965e-01|  5.0000e-01|  5.0000e-01|  5.0000e-01|   -6.048744|   -6.170168|   -6.693955|   -6.369407|   -6.315077|   -8.778049|    2.053653|
|         142|  5.7565e+00|  3.5931e-09|  7.6965e-01|  5.0000e-01|  5.0000e-01|  5.0000e-01|   -6.048713|   -6.170299|   -6.693974|   -6.369364|   -6.315213|   -8.778040|    2.053626|
|         143|  5.7567e+00|  3.5931e-09|  7.6965e-01|  5.0000e-01|  5.0000e-01|  5.0000e-01|   -6.048674|   -6.170421|   -6.693991|   -6.369316|   -6.315344|   -8.778032|    2.053598|
|         144|  5.7575e+00|  3.5931e-09|  7.6965e-01|  5.0000e-01|  5.0000e-01|  5.0000e-01|   -6.048629|   -6.170535|   -6.694006|   -6.369262|   -6.315468|   -8.778023|    2.053570|
|         145|  5.7576e+00|  3.5931e-09|  7.6965e-01|  5.0000e-01|  5.0000e-01|  5.0000e-01|   -6.048576|   -6.170640|   -6.694019|   -6.369203|   -6.315587|   -8.778015|    2.053542|
|         146|  5.7583e+00|  3.5931e-09|  7.6965e-01|  5.0000e-01|  5.0000e-01|  5.0000e-01|   -6.048517|   -6.170736|   -6.694030|   -6.369138|   -6.315700|   -8.778007|    2.053514|
|         147|  5.7593e+00|  3.5931e-09|  7.6965e-01|  5.0000e-01|  5.0000e-01|  5.0000e-01|   -6.048450|   -6.170824|   -6.694040|   -6.369068|   -6.315807|   -8.777999|    2.053487|
|         148|  5.7598e+00|  3.5930e-09|  7.6965e-01|  5.0000e-01|  5.0000e-01|  5.0000e-01|   -6.048377|   -6.170903|   -6.694047|   -6.368994|   -6.315908|   -8.777992|    2.053459|
|         149|  5.7602e+00|  3.5930e-09|  7.6965e-01|  5.0000e-01|  5.0000e-01|  5.0000e-01|   -6.048296|   -6.170973|   -6.694052|   -6.368913|   -6.316003|   -8.777984|    2.053431|
|         150|  5.7606e+00|  3.5930e-09|  7.6965e-01|  5.0000e-01|  5.0000e-01|  5.0000e-01|   -6.048208|   -6.171034|   -6.694054|   -6.368828|   -6.316093|   -8.777977|    2.053404|
+-----------------------------------------------------------------------+
|        File Writing Summary       |              Filename             |
+-----------------------------------------------------------------------+
|SU2 binary restart                 |restart_flow.dat                   |
|Paraview                           |flow.vtu                           |
|Paraview surface                   |surface_flow.vtu                   |
+-----------------------------------------------------------------------+
+-------------------------------------------------------------------------------------------------------------------------------------------------------------------------------------+
|  Inner_Iter|   Time(sec)|      Min DT|      Max DT|     Min CFL|     Max CFL|     Avg CFL|    rms[Rho]|   rms[RhoU]|   rms[RhoV]|   rms[RhoW]|   rms[RhoE]|     rms[nu]|          CD|
+-------------------------------------------------------------------------------------------------------------------------------------------------------------------------------------+
|         151|  5.9265e+00|  3.5930e-09|  7.6965e-01|  5.0000e-01|  5.0000e-01|  5.0000e-01|   -6.048113|   -6.171087|   -6.694054|   -6.368736|   -6.316176|   -8.777969|    2.053376|
|         152|  5.9274e+00|  3.5930e-09|  7.6965e-01|  5.0000e-01|  5.0000e-01|  5.0000e-01|   -6.048011|   -6.171130|   -6.694052|   -6.368640|   -6.316253|   -8.777962|    2.053348|
|         153|  5.9277e+00|  3.5929e-09|  7.6965e-01|  5.0000e-01|  5.0000e-01|  5.0000e-01|   -6.047902|   -6.171166|   -6.694048|   -6.368538|   -6.316324|   -8.777955|    2.053321|
|         154|  5.9276e+00|  3.5929e-09|  7.6965e-01|  5.0000e-01|  5.0000e-01|  5.0000e-01|   -6.047786|   -6.171192|   -6.694041|   -6.368431|   -6.316389|   -8.777948|    2.053293|
|         155|  5.9269e+00|  3.5929e-09|  7.6965e-01|  5.0000e-01|  5.0000e-01|  5.0000e-01|   -6.047662|   -6.171210|   -6.694032|   -6.368319|   -6.316448|   -8.777942|    2.053266|
|         156|  5.9258e+00|  3.5929e-09|  7.6965e-01|  5.0000e-01|  5.0000e-01|  5.0000e-01|   -6.047533|   -6.171219|   -6.694021|   -6.368202|   -6.316502|   -8.777935|    2.053238|
|         157|  5.9246e+00|  3.5929e-09|  7.6965e-01|  5.0000e-01|  5.0000e-01|  5.0000e-01|   -6.047396|   -6.171219|   -6.694007|   -6.368080|   -6.316550|   -8.777929|    2.053210|
|         158|  5.9242e+00|  3.5929e-09|  7.6965e-01|  5.0000e-01|  5.0000e-01|  5.0000e-01|   -6.047252|   -6.171210|   -6.693990|   -6.367953|   -6.316591|   -8.777923|    2.053183|
|         159|  5.9233e+00|  3.5928e-09|  7.6965e-01|  5.0000e-01|  5.0000e-01|  5.0000e-01|   -6.047101|   -6.171193|   -6.693972|   -6.367820|   -6.316627|   -8.777917|    2.053155|
|         160|  5.9224e+00|  3.5928e-09|  7.6965e-01|  5.0000e-01|  5.0000e-01|  5.0000e-01|   -6.046944|   -6.171167|   -6.693951|   -6.367683|   -6.316656|   -8.777911|    2.053128|
|         161|  5.9216e+00|  3.5928e-09|  7.6965e-01|  5.0000e-01|  5.0000e-01|  5.0000e-01|   -6.046779|   -6.171133|   -6.693928|   -6.367540|   -6.316680|   -8.777905|    2.053100|
|         162|  5.9218e+00|  3.5928e-09|  7.6965e-01|  5.0000e-01|  5.0000e-01|  5.0000e-01|   -6.046608|   -6.171090|   -6.693902|   -6.367392|   -6.316697|   -8.777900|    2.053073|
|         163|  5.9215e+00|  3.5928e-09|  7.6965e-01|  5.0000e-01|  5.0000e-01|  5.0000e-01|   -6.046431|   -6.171039|   -6.693875|   -6.367241|   -6.316710|   -8.777894|    2.053045|
|         164|  5.9211e+00|  3.5928e-09|  7.6965e-01|  5.0000e-01|  5.0000e-01|  5.0000e-01|   -6.046248|   -6.170979|   -6.693845|   -6.367084|   -6.316717|   -8.777889|    2.053018|
|         165|  5.9209e+00|  3.5927e-09|  7.6965e-01|  5.0000e-01|  5.0000e-01|  5.0000e-01|   -6.046058|   -6.170911|   -6.693813|   -6.366923|   -6.316718|   -8.777884|    2.052991|
|         166|  5.9203e+00|  3.5927e-09|  7.6965e-01|  5.0000e-01|  5.0000e-01|  5.0000e-01|   -6.045861|   -6.170834|   -6.693779|   -6.366755|   -6.316713|   -8.777880|    2.052963|
|         167|  5.9197e+00|  3.5927e-09|  7.6965e-01|  5.0000e-01|  5.0000e-01|  5.0000e-01|   -6.045657|   -6.170749|   -6.693742|   -6.366583|   -6.316702|   -8.777875|    2.052936|
|         168|  5.9187e+00|  3.5927e-09|  7.6965e-01|  5.0000e-01|  5.0000e-01|  5.0000e-01|   -6.045447|   -6.170655|   -6.693703|   -6.366406|   -6.316685|   -8.777871|    2.052909|
|         169|  5.9179e+00|  3.5927e-09|  7.6965e-01|  5.0000e-01|  5.0000e-01|  5.0000e-01|   -6.045230|   -6.170553|   -6.693661|   -6.366224|   -6.316662|   -8.777866|    2.052881|
|         170|  5.9172e+00|  3.5926e-09|  7.6965e-01|  5.0000e-01|  5.0000e-01|  5.0000e-01|   -6.045006|   -6.170442|   -6.693617|   -6.366037|   -6.316632|   -8.777862|    2.052854|
|         171|  5.9160e+00|  3.5926e-09|  7.6965e-01|  5.0000e-01|  5.0000e-01|  5.0000e-01|   -6.044776|   -6.170323|   -6.693571|   -6.365844|   -6.316597|   -8.777859|    2.052827|
|         172|  5.9160e+00|  3.5926e-09|  7.6965e-01|  5.0000e-01|  5.0000e-01|  5.0000e-01|   -6.044539|   -6.170195|   -6.693522|   -6.365647|   -6.316555|   -8.777855|    2.052800|
|         173|  5.9159e+00|  3.5926e-09|  7.6965e-01|  5.0000e-01|  5.0000e-01|  5.0000e-01|   -6.044295|   -6.170059|   -6.693471|   -6.365444|   -6.316508|   -8.777852|    2.052772|
|         174|  5.9154e+00|  3.5926e-09|  7.6965e-01|  5.0000e-01|  5.0000e-01|  5.0000e-01|   -6.044045|   -6.169914|   -6.693418|   -6.365237|   -6.316454|   -8.777848|    2.052745|
|         175|  5.9146e+00|  3.5926e-09|  7.6965e-01|  5.0000e-01|  5.0000e-01|  5.0000e-01|   -6.043788|   -6.169761|   -6.693362|   -6.365024|   -6.316395|   -8.777845|    2.052718|
|         176|  5.9138e+00|  3.5925e-09|  7.6965e-01|  5.0000e-01|  5.0000e-01|  5.0000e-01|   -6.043525|   -6.169599|   -6.693305|   -6.364806|   -6.316329|   -8.777843|    2.052691|
|         177|  5.9136e+00|  3.5925e-09|  7.6965e-01|  5.0000e-01|  5.0000e-01|  5.0000e-01|   -6.043255|   -6.169429|   -6.693245|   -6.364584|   -6.316257|   -8.777840|    2.052664|
|         178|  5.9135e+00|  3.5925e-09|  7.6965e-01|  5.0000e-01|  5.0000e-01|  5.0000e-01|   -6.042980|   -6.169250|   -6.693182|   -6.364357|   -6.316180|   -8.777838|    2.052637|
|         179|  5.9129e+00|  3.5925e-09|  7.6965e-01|  5.0000e-01|  5.0000e-01|  5.0000e-01|   -6.042697|   -6.169064|   -6.693118|   -6.364125|   -6.316096|   -8.777836|    2.052610|
|         180|  5.9131e+00|  3.5925e-09|  7.6965e-01|  5.0000e-01|  5.0000e-01|  5.0000e-01|   -6.042409|   -6.168868|   -6.693051|   -6.363888|   -6.316007|   -8.777834|    2.052583|
|         181|  5.9125e+00|  3.5925e-09|  7.6965e-01|  5.0000e-01|  5.0000e-01|  5.0000e-01|   -6.042114|   -6.168665|   -6.692983|   -6.363646|   -6.315912|   -8.777832|    2.052556|
|         182|  5.9122e+00|  3.5924e-09|  7.6965e-01|  5.0000e-01|  5.0000e-01|  5.0000e-01|   -6.041814|   -6.168453|   -6.692912|   -6.363400|   -6.315811|   -8.777831|    2.052529|
|         183|  5.9121e+00|  3.5924e-09|  7.6965e-01|  5.0000e-01|  5.0000e-01|  5.0000e-01|   -6.041507|   -6.168233|   -6.692840|   -6.363150|   -6.315704|   -8.777829|    2.052502|
|         184|  5.9121e+00|  3.5924e-09|  7.6965e-01|  5.0000e-01|  5.0000e-01|  5.0000e-01|   -6.041195|   -6.168006|   -6.692765|   -6.362895|   -6.315592|   -8.777828|    2.052475|
|         185|  5.9119e+00|  3.5924e-09|  7.6965e-01|  5.0000e-01|  5.0000e-01|  5.0000e-01|   -6.040877|   -6.167770|   -6.692689|   -6.362636|   -6.315474|   -8.777827|    2.052449|
|         186|  5.9114e+00|  3.5924e-09|  7.6965e-01|  5.0000e-01|  5.0000e-01|  5.0000e-01|   -6.040554|   -6.167526|   -6.692611|   -6.362372|   -6.315351|   -8.777827|    2.052422|
|         187|  5.9109e+00|  3.5924e-09|  7.6965e-01|  5.0000e-01|  5.0000e-01|  5.0000e-01|   -6.040225|   -6.167274|   -6.692531|   -6.362104|   -6.315222|   -8.777827|    2.052395|
|         188|  5.9106e+00|  3.5923e-09|  7.6965e-01|  5.0000e-01|  5.0000e-01|  5.0000e-01|   -6.039890|   -6.167014|   -6.692448|   -6.361832|   -6.315087|   -8.777827|    2.052368|
|         189|  5.9102e+00|  3.5923e-09|  7.6965e-01|  5.0000e-01|  5.0000e-01|  5.0000e-01|   -6.039550|   -6.166747|   -6.692364|   -6.361557|   -6.314948|   -8.777827|    2.052342|
|         190|  5.9097e+00|  3.5923e-09|  7.6965e-01|  5.0000e-01|  5.0000e-01|  5.0000e-01|   -6.039204|   -6.166472|   -6.692278|   -6.361277|   -6.314803|   -8.777827|    2.052315|
|         191|  5.9097e+00|  3.5923e-09|  7.6965e-01|  5.0000e-01|  5.0000e-01|  5.0000e-01|   -6.038855|   -6.166189|   -6.692192|   -6.360994|   -6.314654|   -8.777828|    2.052288|
|         192|  5.9098e+00|  3.5923e-09|  7.6965e-01|  5.0000e-01|  5.0000e-01|  5.0000e-01|   -6.038499|   -6.165899|   -6.692103|   -6.360707|   -6.314499|   -8.777829|    2.052262|
|         193|  5.9090e+00|  3.5922e-09|  7.6965e-01|  5.0000e-01|  5.0000e-01|  5.0000e-01|   -6.038139|   -6.165601|   -6.692012|   -6.360415|   -6.314338|   -8.777830|    2.052235|
|         194|  5.9084e+00|  3.5922e-09|  7.6965e-01|  5.0000e-01|  5.0000e-01|  5.0000e-01|   -6.037772|   -6.165295|   -6.691919|   -6.360119|   -6.314171|   -8.777831|    2.052209|
|         195|  5.9081e+00|  3.5922e-09|  7.6965e-01|  5.0000e-01|  5.0000e-01|  5.0000e-01|   -6.037400|   -6.164982|   -6.691823|   -6.359819|   -6.313999|   -8.777833|    2.052182|
|         196|  5.9078e+00|  3.5922e-09|  7.6965e-01|  5.0000e-01|  5.0000e-01|  5.0000e-01|   -6.037023|   -6.164661|   -6.691726|   -6.359514|   -6.313822|   -8.777834|    2.052156|
|         197|  5.9074e+00|  3.5922e-09|  7.6965e-01|  5.0000e-01|  5.0000e-01|  5.0000e-01|   -6.036641|   -6.164333|   -6.691627|   -6.359207|   -6.313640|   -8.777836|    2.052130|
|         198|  5.9075e+00|  3.5922e-09|  7.6965e-01|  5.0000e-01|  5.0000e-01|  5.0000e-01|   -6.036255|   -6.163998|   -6.691527|   -6.358896|   -6.313452|   -8.777839|    2.052103|
|         199|  5.9071e+00|  3.5921e-09|  7.6965e-01|  5.0000e-01|  5.0000e-01|  5.0000e-01|   -6.035863|   -6.163656|   -6.691424|   -6.358581|   -6.313260|   -8.777841|    2.052077|
|         200|  5.9070e+00|  3.5921e-09|  7.6965e-01|  5.0000e-01|  5.0000e-01|  5.0000e-01|   -6.035466|   -6.163307|   -6.691319|   -6.358261|   -6.313061|   -8.777844|    2.052051|
|         201|  5.9068e+00|  3.5921e-09|  7.6965e-01|  5.0000e-01|  5.0000e-01|  5.0000e-01|   -6.035064|   -6.162950|   -6.691212|   -6.357937|   -6.312857|   -8.777847|    2.052024|
|         202|  5.9068e+00|  3.5921e-09|  7.6965e-01|  5.0000e-01|  5.0000e-01|  5.0000e-01|   -6.034657|   -6.162586|   -6.691102|   -6.357610|   -6.312648|   -8.777850|    2.051998|
|         203|  5.9063e+00|  3.5921e-09|  7.6965e-01|  5.0000e-01|  5.0000e-01|  5.0000e-01|   -6.034244|   -6.162216|   -6.690991|   -6.357278|   -6.312433|   -8.777854|    2.051972|
|         204|  5.9066e+00|  3.5921e-09|  7.6965e-01|  5.0000e-01|  5.0000e-01|  5.0000e-01|   -6.033827|   -6.161838|   -6.690878|   -6.356943|   -6.312213|   -8.777858|    2.051946|
|         205|  5.9065e+00|  3.5920e-09|  7.6965e-01|  5.0000e-01|  5.0000e-01|  5.0000e-01|   -6.033405|   -6.161453|   -6.690763|   -6.356604|   -6.311989|   -8.777862|    2.051920|
|         206|  5.9062e+00|  3.5920e-09|  7.6965e-01|  5.0000e-01|  5.0000e-01|  5.0000e-01|   -6.032979|   -6.161062|   -6.690646|   -6.356261|   -6.311758|   -8.777866|    2.051894|
|         207|  5.9057e+00|  3.5920e-09|  7.6965e-01|  5.0000e-01|  5.0000e-01|  5.0000e-01|   -6.032547|   -6.160663|   -6.690526|   -6.355914|   -6.311523|   -8.777871|    2.051868|
|         208|  5.9052e+00|  3.5920e-09|  7.6965e-01|  5.0000e-01|  5.0000e-01|  5.0000e-01|   -6.032110|   -6.160258|   -6.690405|   -6.355563|   -6.311281|   -8.777876|    2.051842|
|         209|  5.9048e+00|  3.5920e-09|  7.6965e-01|  5.0000e-01|  5.0000e-01|  5.0000e-01|   -6.031670|   -6.159846|   -6.690282|   -6.355209|   -6.311036|   -8.777881|    2.051816|
|         210|  5.9046e+00|  3.5920e-09|  7.6965e-01|  5.0000e-01|  5.0000e-01|  5.0000e-01|   -6.031224|   -6.159427|   -6.690157|   -6.354851|   -6.310785|   -8.777886|    2.051790|
|         211|  5.9041e+00|  3.5919e-09|  7.6965e-01|  5.0000e-01|  5.0000e-01|  5.0000e-01|   -6.030774|   -6.159002|   -6.690030|   -6.354489|   -6.310529|   -8.777892|    2.051764|
|         212|  5.9039e+00|  3.5919e-09|  7.6965e-01|  5.0000e-01|  5.0000e-01|  5.0000e-01|   -6.030320|   -6.158570|   -6.689902|   -6.354125|   -6.310268|   -8.777898|    2.051739|
|         213|  5.9035e+00|  3.5919e-09|  7.6965e-01|  5.0000e-01|  5.0000e-01|  5.0000e-01|   -6.029861|   -6.158132|   -6.689772|   -6.353757|   -6.310002|   -8.777904|    2.051713|
|         214|  5.9042e+00|  3.5919e-09|  7.6965e-01|  5.0000e-01|  5.0000e-01|  5.0000e-01|   -6.029398|   -6.157687|   -6.689640|   -6.353384|   -6.309731|   -8.777910|    2.051687|
|         215|  5.9044e+00|  3.5919e-09|  7.6965e-01|  5.0000e-01|  5.0000e-01|  5.0000e-01|   -6.028931|   -6.157236|   -6.689506|   -6.353009|   -6.309455|   -8.777917|    2.051662|
|         216|  5.9043e+00|  3.5919e-09|  7.6965e-01|  5.0000e-01|  5.0000e-01|  5.0000e-01|   -6.028459|   -6.156779|   -6.689371|   -6.352630|   -6.309174|   -8.777924|    2.051636|
|         217|  5.9038e+00|  3.5918e-09|  7.6965e-01|  5.0000e-01|  5.0000e-01|  5.0000e-01|   -6.027984|   -6.156316|   -6.689233|   -6.352248|   -6.308888|   -8.777931|    2.051610|
|         218|  5.9036e+00|  3.5918e-09|  7.6965e-01|  5.0000e-01|  5.0000e-01|  5.0000e-01|   -6.027504|   -6.155847|   -6.689094|   -6.351863|   -6.308598|   -8.777938|    2.051585|
|         219|  5.9040e+00|  3.5918e-09|  7.6965e-01|  5.0000e-01|  5.0000e-01|  5.0000e-01|   -6.027020|   -6.155372|   -6.688953|   -6.351474|   -6.308302|   -8.777946|    2.051560|
|         220|  5.9037e+00|  3.5918e-09|  7.6965e-01|  5.0000e-01|  5.0000e-01|  5.0000e-01|   -6.026532|   -6.154891|   -6.688809|   -6.351081|   -6.308002|   -8.777954|    2.051534|
|         221|  5.9034e+00|  3.5918e-09|  7.6965e-01|  5.0000e-01|  5.0000e-01|  5.0000e-01|   -6.026040|   -6.154404|   -6.688664|   -6.350685|   -6.307696|   -8.777962|    2.051509|
|         222|  5.9029e+00|  3.5917e-09|  7.6965e-01|  5.0000e-01|  5.0000e-01|  5.0000e-01|   -6.025543|   -6.153911|   -6.688517|   -6.350286|   -6.307386|   -8.777971|    2.051483|
|         223|  5.9025e+00|  3.5917e-09|  7.6965e-01|  5.0000e-01|  5.0000e-01|  5.0000e-01|   -6.025043|   -6.153413|   -6.688368|   -6.349883|   -6.307071|   -8.777979|    2.051458|
|         224|  5.9019e+00|  3.5917e-09|  7.6965e-01|  5.0000e-01|  5.0000e-01|  5.0000e-01|   -6.024539|   -6.152908|   -6.688217|   -6.349478|   -6.306751|   -8.777988|    2.051433|
|         225|  5.9017e+00|  3.5917e-09|  7.6965e-01|  5.0000e-01|  5.0000e-01|  5.0000e-01|   -6.024032|   -6.152399|   -6.688065|   -6.349070|   -6.306427|   -8.777997|    2.051408|
|         226|  5.9016e+00|  3.5917e-09|  7.6965e-01|  5.0000e-01|  5.0000e-01|  5.0000e-01|   -6.023521|   -6.151883|   -6.687912|   -6.348659|   -6.306099|   -8.778007|    2.051383|
|         227|  5.9014e+00|  3.5917e-09|  7.6965e-01|  5.0000e-01|  5.0000e-01|  5.0000e-01|   -6.023007|   -6.151363|   -6.687756|   -6.348244|   -6.305766|   -8.778017|    2.051358|
|         228|  5.9011e+00|  3.5916e-09|  7.6965e-01|  5.0000e-01|  5.0000e-01|  5.0000e-01|   -6.022488|   -6.150836|   -6.687599|   -6.347827|   -6.305428|   -8.778027|    2.051332|
|         229|  5.9001e+00|  3.5916e-09|  7.6965e-01|  5.0000e-01|  5.0000e-01|  5.0000e-01|   -6.021967|   -6.150305|   -6.687440|   -6.347406|   -6.305086|   -8.778037|    2.051307|
|         230|  5.8997e+00|  3.5916e-09|  7.6965e-01|  5.0000e-01|  5.0000e-01|  5.0000e-01|   -6.021441|   -6.149768|   -6.687280|   -6.346983|   -6.304739|   -8.778047|    2.051283|
|         231|  5.8996e+00|  3.5916e-09|  7.6965e-01|  5.0000e-01|  5.0000e-01|  5.0000e-01|   -6.020912|   -6.149225|   -6.687117|   -6.346557|   -6.304387|   -8.778058|    2.051258|
|         232|  5.8990e+00|  3.5916e-09|  7.6965e-01|  5.0000e-01|  5.0000e-01|  5.0000e-01|   -6.020380|   -6.148678|   -6.686954|   -6.346127|   -6.304031|   -8.778069|    2.051233|
|         233|  5.8987e+00|  3.5916e-09|  7.6965e-01|  5.0000e-01|  5.0000e-01|  5.0000e-01|   -6.019845|   -6.148125|   -6.686789|   -6.345695|   -6.303671|   -8.778080|    2.051208|
|         234|  5.8982e+00|  3.5915e-09|  7.6965e-01|  5.0000e-01|  5.0000e-01|  5.0000e-01|   -6.019306|   -6.147568|   -6.686622|   -6.345260|   -6.303307|   -8.778092|    2.051183|
|         235|  5.8973e+00|  3.5915e-09|  7.6965e-01|  5.0000e-01|  5.0000e-01|  5.0000e-01|   -6.018764|   -6.147005|   -6.686454|   -6.344822|   -6.302938|   -8.778104|    2.051159|
|         236|  5.8966e+00|  3.5915e-09|  7.6965e-01|  5.0000e-01|  5.0000e-01|  5.0000e-01|   -6.018219|   -6.146438|   -6.686285|   -6.344382|   -6.302564|   -8.778116|    2.051134|
|         237|  5.8961e+00|  3.5915e-09|  7.6965e-01|  5.0000e-01|  5.0000e-01|  5.0000e-01|   -6.017671|   -6.145866|   -6.686114|   -6.343939|   -6.302187|   -8.778128|    2.051109|
|         238|  5.8956e+00|  3.5915e-09|  7.6965e-01|  5.0000e-01|  5.0000e-01|  5.0000e-01|   -6.017121|   -6.145289|   -6.685941|   -6.343494|   -6.301806|   -8.778140|    2.051085|
|         239|  5.8954e+00|  3.5915e-09|  7.6965e-01|  5.0000e-01|  5.0000e-01|  5.0000e-01|   -6.016567|   -6.144708|   -6.685768|   -6.343047|   -6.301421|   -8.778153|    2.051060|
|         240|  5.8951e+00|  3.5914e-09|  7.6965e-01|  5.0000e-01|  5.0000e-01|  5.0000e-01|   -6.016011|   -6.144123|   -6.685593|   -6.342597|   -6.301033|   -8.778166|    2.051036|
|         241|  5.8949e+00|  3.5914e-09|  7.6965e-01|  5.0000e-01|  5.0000e-01|  5.0000e-01|   -6.015453|   -6.143533|   -6.685417|   -6.342145|   -6.300640|   -8.778179|    2.051011|
|         242|  5.8944e+00|  3.5914e-09|  7.6965e-01|  5.0000e-01|  5.0000e-01|  5.0000e-01|   -6.014891|   -6.142939|   -6.685239|   -6.341692|   -6.300244|   -8.778192|    2.050987|
|         243|  5.8936e+00|  3.5914e-09|  7.6965e-01|  5.0000e-01|  5.0000e-01|  5.0000e-01|   -6.014328|   -6.142341|   -6.685060|   -6.341236|   -6.299844|   -8.778206|    2.050963|
|         244|  5.8932e+00|  3.5914e-09|  7.6965e-01|  5.0000e-01|  5.0000e-01|  5.0000e-01|   -6.013762|   -6.141739|   -6.684880|   -6.340778|   -6.299441|   -8.778220|    2.050939|
|         245|  5.8929e+00|  3.5914e-09|  7.6965e-01|  5.0000e-01|  5.0000e-01|  5.0000e-01|   -6.013194|   -6.141133|   -6.684698|   -6.340319|   -6.299034|   -8.778234|    2.050914|
|         246|  5.8925e+00|  3.5913e-09|  7.6965e-01|  5.0000e-01|  5.0000e-01|  5.0000e-01|   -6.012623|   -6.140523|   -6.684516|   -6.339857|   -6.298624|   -8.778249|    2.050890|
|         247|  5.8918e+00|  3.5913e-09|  7.6965e-01|  5.0000e-01|  5.0000e-01|  5.0000e-01|   -6.012051|   -6.139910|   -6.684332|   -6.339395|   -6.298210|   -8.778263|    2.050866|
|         248|  5.8915e+00|  3.5913e-09|  7.6965e-01|  5.0000e-01|  5.0000e-01|  5.0000e-01|   -6.011476|   -6.139293|   -6.684147|   -6.338930|   -6.297794|   -8.778278|    2.050842|
|         249|  5.8910e+00|  3.5913e-09|  7.6965e-01|  5.0000e-01|  5.0000e-01|  5.0000e-01|   -6.010899|   -6.138672|   -6.683960|   -6.338463|   -6.297374|   -8.778293|    2.050818|
|         250|  5.8905e+00|  3.5913e-09|  7.6965e-01|  5.0000e-01|  5.0000e-01|  5.0000e-01|   -6.010321|   -6.138048|   -6.683772|   -6.337995|   -6.296950|   -8.778308|    2.050794|
|         251|  5.8899e+00|  3.5913e-09|  7.6965e-01|  5.0000e-01|  5.0000e-01|  5.0000e-01|   -6.009740|   -6.137420|   -6.683583|   -6.337526|   -6.296524|   -8.778324|    2.050770|
|         252|  5.8891e+00|  3.5912e-09|  7.6965e-01|  5.0000e-01|  5.0000e-01|  5.0000e-01|   -6.009158|   -6.136789|   -6.683393|   -6.337054|   -6.296094|   -8.778340|    2.050746|
|         253|  5.8884e+00|  3.5912e-09|  7.6965e-01|  5.0000e-01|  5.0000e-01|  5.0000e-01|   -6.008574|   -6.136155|   -6.683201|   -6.336582|   -6.295662|   -8.778356|    2.050723|
|         254|  5.8878e+00|  3.5912e-09|  7.6965e-01|  5.0000e-01|  5.0000e-01|  5.0000e-01|   -6.007988|   -6.135518|   -6.683008|   -6.336108|   -6.295226|   -8.778372|    2.050699|
|         255|  5.8875e+00|  3.5912e-09|  7.6965e-01|  5.0000e-01|  5.0000e-01|  5.0000e-01|   -6.007402|   -6.134878|   -6.682815|   -6.335633|   -6.294789|   -8.778389|    2.050675|
|         256|  5.8870e+00|  3.5912e-09|  7.6965e-01|  5.0000e-01|  5.0000e-01|  5.0000e-01|   -6.006813|   -6.134235|   -6.682620|   -6.335157|   -6.294348|   -8.778405|    2.050652|
|         257|  5.8867e+00|  3.5912e-09|  7.6965e-01|  5.0000e-01|  5.0000e-01|  5.0000e-01|   -6.006224|   -6.133589|   -6.682424|   -6.334679|   -6.293904|   -8.778422|    2.050628|
|         258|  5.8863e+00|  3.5911e-09|  7.6965e-01|  5.0000e-01|  5.0000e-01|  5.0000e-01|   -6.005632|   -6.132940|   -6.682227|   -6.334200|   -6.293458|   -8.778439|    2.050605|
|         259|  5.8858e+00|  3.5911e-09|  7.6965e-01|  5.0000e-01|  5.0000e-01|  5.0000e-01|   -6.005040|   -6.132288|   -6.682029|   -6.333720|   -6.293009|   -8.778457|    2.050581|
|         260|  5.8855e+00|  3.5911e-09|  7.6965e-01|  5.0000e-01|  5.0000e-01|  5.0000e-01|   -6.004446|   -6.131634|   -6.681830|   -6.333239|   -6.292557|   -8.778474|    2.050558|
|         261|  5.8852e+00|  3.5911e-09|  7.6965e-01|  5.0000e-01|  5.0000e-01|  5.0000e-01|   -6.003850|   -6.130977|   -6.681629|   -6.332756|   -6.292103|   -8.778492|    2.050535|
|         262|  5.8851e+00|  3.5911e-09|  7.6965e-01|  5.0000e-01|  5.0000e-01|  5.0000e-01|   -6.003254|   -6.130318|   -6.681428|   -6.332272|   -6.291645|   -8.778510|    2.050511|
|         263|  5.8847e+00|  3.5911e-09|  7.6965e-01|  5.0000e-01|  5.0000e-01|  5.0000e-01|   -6.002656|   -6.129656|   -6.681225|   -6.331786|   -6.291186|   -8.778529|    2.050488|
|         264|  5.8846e+00|  3.5910e-09|  7.6965e-01|  5.0000e-01|  5.0000e-01|  5.0000e-01|   -6.002057|   -6.128992|   -6.681021|   -6.331300|   -6.290723|   -8.778547|    2.050465|
|         265|  5.8845e+00|  3.5910e-09|  7.6965e-01|  5.0000e-01|  5.0000e-01|  5.0000e-01|   -6.001457|   -6.128326|   -6.680817|   -6.330813|   -6.290259|   -8.778566|    2.050442|
|         266|  5.8844e+00|  3.5910e-09|  7.6965e-01|  5.0000e-01|  5.0000e-01|  5.0000e-01|   -6.000857|   -6.127658|   -6.680611|   -6.330326|   -6.289793|   -8.778585|    2.050419|
|         267|  5.8839e+00|  3.5910e-09|  7.6965e-01|  5.0000e-01|  5.0000e-01|  5.0000e-01|   -6.000256|   -6.126988|   -6.680405|   -6.329838|   -6.289325|   -8.778604|    2.050396|
|         268|  5.8839e+00|  3.5910e-09|  7.6965e-01|  5.0000e-01|  5.0000e-01|  5.0000e-01|   -5.999654|   -6.126316|   -6.680197|   -6.329349|   -6.288854|   -8.778624|    2.050373|
|         269|  5.8837e+00|  3.5910e-09|  7.6965e-01|  5.0000e-01|  5.0000e-01|  5.0000e-01|   -5.999051|   -6.125641|   -6.679988|   -6.328859|   -6.288381|   -8.778643|    2.050350|
|         270|  5.8834e+00|  3.5909e-09|  7.6965e-01|  5.0000e-01|  5.0000e-01|  5.0000e-01|   -5.998447|   -6.124965|   -6.679778|   -6.328368|   -6.287906|   -8.778663|    2.050327|
|         271|  5.8831e+00|  3.5909e-09|  7.6965e-01|  5.0000e-01|  5.0000e-01|  5.0000e-01|   -5.997843|   -6.124288|   -6.679567|   -6.327876|   -6.287429|   -8.778683|    2.050305|
|         272|  5.8828e+00|  3.5909e-09|  7.6965e-01|  5.0000e-01|  5.0000e-01|  5.0000e-01|   -5.997238|   -6.123608|   -6.679356|   -6.327384|   -6.286949|   -8.778703|    2.050282|
|         273|  5.8825e+00|  3.5909e-09|  7.6965e-01|  5.0000e-01|  5.0000e-01|  5.0000e-01|   -5.996632|   -6.122927|   -6.679144|   -6.326891|   -6.286468|   -8.778724|    2.050259|
|         274|  5.8822e+00|  3.5909e-09|  7.6965e-01|  5.0000e-01|  5.0000e-01|  5.0000e-01|   -5.996026|   -6.122244|   -6.678930|   -6.326397|   -6.285985|   -8.778744|    2.050237|
|         275|  5.8817e+00|  3.5909e-09|  7.6965e-01|  5.0000e-01|  5.0000e-01|  5.0000e-01|   -5.995419|   -6.121560|   -6.678715|   -6.325902|   -6.285499|   -8.778765|    2.050214|
|         276|  5.8813e+00|  3.5908e-09|  7.6965e-01|  5.0000e-01|  5.0000e-01|  5.0000e-01|   -5.994811|   -6.120875|   -6.678500|   -6.325406|   -6.285012|   -8.778786|    2.050192|
|         277|  5.8808e+00|  3.5908e-09|  7.6965e-01|  5.0000e-01|  5.0000e-01|  5.0000e-01|   -5.994203|   -6.120188|   -6.678283|   -6.324910|   -6.284523|   -8.778807|    2.050170|
|         278|  5.8804e+00|  3.5908e-09|  7.6965e-01|  5.0000e-01|  5.0000e-01|  5.0000e-01|   -5.993595|   -6.119500|   -6.678066|   -6.324414|   -6.284033|   -8.778829|    2.050147|
|         279|  5.8799e+00|  3.5908e-09|  7.6965e-01|  5.0000e-01|  5.0000e-01|  5.0000e-01|   -5.992987|   -6.118811|   -6.677848|   -6.323918|   -6.283541|   -8.778850|    2.050125|
|         280|  5.8797e+00|  3.5908e-09|  7.6965e-01|  5.0000e-01|  5.0000e-01|  5.0000e-01|   -5.992379|   -6.118121|   -6.677629|   -6.323421|   -6.283047|   -8.778872|    2.050103|
|         281|  5.8790e+00|  3.5908e-09|  7.6965e-01|  5.0000e-01|  5.0000e-01|  5.0000e-01|   -5.991770|   -6.117429|   -6.677409|   -6.322924|   -6.282552|   -8.778893|    2.050081|
|         282|  5.8789e+00|  3.5907e-09|  7.6965e-01|  5.0000e-01|  5.0000e-01|  5.0000e-01|   -5.991161|   -6.116737|   -6.677188|   -6.322426|   -6.282055|   -8.778915|    2.050059|
|         283|  5.8789e+00|  3.5907e-09|  7.6965e-01|  5.0000e-01|  5.0000e-01|  5.0000e-01|   -5.990552|   -6.116044|   -6.676966|   -6.321928|   -6.281556|   -8.778937|    2.050037|
|         284|  5.8786e+00|  3.5907e-09|  7.6965e-01|  5.0000e-01|  5.0000e-01|  5.0000e-01|   -5.989942|   -6.115350|   -6.676743|   -6.321429|   -6.281056|   -8.778959|    2.050015|
|         285|  5.8785e+00|  3.5907e-09|  7.6965e-01|  5.0000e-01|  5.0000e-01|  5.0000e-01|   -5.989333|   -6.114655|   -6.676520|   -6.320930|   -6.280555|   -8.778982|    2.049993|
|         286|  5.8786e+00|  3.5907e-09|  7.6965e-01|  5.0000e-01|  5.0000e-01|  5.0000e-01|   -5.988723|   -6.113959|   -6.676296|   -6.320431|   -6.280052|   -8.779004|    2.049972|
|         287|  5.8788e+00|  3.5907e-09|  7.6965e-01|  5.0000e-01|  5.0000e-01|  5.0000e-01|   -5.988113|   -6.113263|   -6.676072|   -6.319931|   -6.279547|   -8.779027|    2.049950|
|         288|  5.8787e+00|  3.5906e-09|  7.6965e-01|  5.0000e-01|  5.0000e-01|  5.0000e-01|   -5.987503|   -6.112565|   -6.675846|   -6.319431|   -6.279041|   -8.779049|    2.049928|
|         289|  5.8786e+00|  3.5906e-09|  7.6965e-01|  5.0000e-01|  5.0000e-01|  5.0000e-01|   -5.986894|   -6.111868|   -6.675620|   -6.318931|   -6.278534|   -8.779072|    2.049907|
|         290|  5.8784e+00|  3.5906e-09|  7.6965e-01|  5.0000e-01|  5.0000e-01|  5.0000e-01|   -5.986284|   -6.111170|   -6.675394|   -6.318431|   -6.278026|   -8.779095|    2.049885|
|         291|  5.8785e+00|  3.5906e-09|  7.6965e-01|  5.0000e-01|  5.0000e-01|  5.0000e-01|   -5.985675|   -6.110471|   -6.675167|   -6.317930|   -6.277516|   -8.779118|    2.049864|
|         292|  5.8788e+00|  3.5906e-09|  7.6965e-01|  5.0000e-01|  5.0000e-01|  5.0000e-01|   -5.985065|   -6.109772|   -6.674939|   -6.317429|   -6.277006|   -8.779141|    2.049843|
|         293|  5.8787e+00|  3.5906e-09|  7.6965e-01|  5.0000e-01|  5.0000e-01|  5.0000e-01|   -5.984456|   -6.109072|   -6.674710|   -6.316929|   -6.276494|   -8.779165|    2.049822|
|         294|  5.8786e+00|  3.5905e-09|  7.6965e-01|  5.0000e-01|  5.0000e-01|  5.0000e-01|   -5.983847|   -6.108372|   -6.674481|   -6.316427|   -6.275981|   -8.779188|    2.049800|
|         295|  5.8780e+00|  3.5905e-09|  7.6965e-01|  5.0000e-01|  5.0000e-01|  5.0000e-01|   -5.983238|   -6.107672|   -6.674251|   -6.315927|   -6.275466|   -8.779211|    2.049779|
|         296|  5.8779e+00|  3.5905e-09|  7.6965e-01|  5.0000e-01|  5.0000e-01|  5.0000e-01|   -5.982630|   -6.106971|   -6.674021|   -6.315426|   -6.274951|   -8.779235|    2.049758|
|         297|  5.8777e+00|  3.5905e-09|  7.6965e-01|  5.0000e-01|  5.0000e-01|  5.0000e-01|   -5.982022|   -6.106270|   -6.673790|   -6.314925|   -6.274436|   -8.779259|    2.049737|
|         298|  5.8775e+00|  3.5905e-09|  7.6965e-01|  5.0000e-01|  5.0000e-01|  5.0000e-01|   -5.981415|   -6.105569|   -6.673559|   -6.314424|   -6.273919|   -8.779282|    2.049716|
|         299|  5.8771e+00|  3.5905e-09|  7.6965e-01|  5.0000e-01|  5.0000e-01|  5.0000e-01|   -5.980808|   -6.104868|   -6.673327|   -6.313924|   -6.273401|   -8.779306|    2.049696|
|         300|  5.8768e+00|  3.5905e-09|  7.6965e-01|  5.0000e-01|  5.0000e-01|  5.0000e-01|   -5.980201|   -6.104167|   -6.673095|   -6.313423|   -6.272882|   -8.779330|    2.049675|
+-----------------------------------------------------------------------+
|        File Writing Summary       |              Filename             |
+-----------------------------------------------------------------------+
|SU2 binary restart                 |restart_flow.dat                   |
|Paraview                           |flow.vtu                           |
|Paraview surface                   |surface_flow.vtu                   |
+-----------------------------------------------------------------------+
+-------------------------------------------------------------------------------------------------------------------------------------------------------------------------------------+
|  Inner_Iter|   Time(sec)|      Min DT|      Max DT|     Min CFL|     Max CFL|     Avg CFL|    rms[Rho]|   rms[RhoU]|   rms[RhoV]|   rms[RhoW]|   rms[RhoE]|     rms[nu]|          CD|
+-------------------------------------------------------------------------------------------------------------------------------------------------------------------------------------+
|         301|  5.9605e+00|  3.5904e-09|  7.6965e-01|  5.0000e-01|  5.0000e-01|  5.0000e-01|   -5.979595|   -6.103466|   -6.672862|   -6.312922|   -6.272362|   -8.779354|    2.049654|
|         302|  5.9613e+00|  3.5904e-09|  7.6965e-01|  5.0000e-01|  5.0000e-01|  5.0000e-01|   -5.978989|   -6.102764|   -6.672628|   -6.312422|   -6.271842|   -8.779378|    2.049634|
|         303|  5.9622e+00|  3.5904e-09|  7.6965e-01|  5.0000e-01|  5.0000e-01|  5.0000e-01|   -5.978384|   -6.102063|   -6.672393|   -6.311922|   -6.271321|   -8.779402|    2.049613|
|         304|  5.9625e+00|  3.5904e-09|  7.6965e-01|  5.0000e-01|  5.0000e-01|  5.0000e-01|   -5.977780|   -6.101362|   -6.672159|   -6.311423|   -6.270799|   -8.779426|    2.049593|
|         305|  5.9622e+00|  3.5904e-09|  7.6965e-01|  5.0000e-01|  5.0000e-01|  5.0000e-01|   -5.977176|   -6.100661|   -6.671923|   -6.310924|   -6.270277|   -8.779450|    2.049572|
|         306|  5.9618e+00|  3.5904e-09|  7.6965e-01|  5.0000e-01|  5.0000e-01|  5.0000e-01|   -5.976573|   -6.099960|   -6.671688|   -6.310425|   -6.269754|   -8.779474|    2.049552|
|         307|  5.9614e+00|  3.5903e-09|  7.6965e-01|  5.0000e-01|  5.0000e-01|  5.0000e-01|   -5.975971|   -6.099259|   -6.671453|   -6.309926|   -6.269230|   -8.779498|    2.049532|
|         308|  5.9614e+00|  3.5903e-09|  7.6965e-01|  5.0000e-01|  5.0000e-01|  5.0000e-01|   -5.975369|   -6.098559|   -6.671218|   -6.309428|   -6.268706|   -8.779523|    2.049512|
|         309|  5.9612e+00|  3.5903e-09|  7.6965e-01|  5.0000e-01|  5.0000e-01|  5.0000e-01|   -5.974768|   -6.097858|   -6.670982|   -6.308930|   -6.268181|   -8.779547|    2.049492|
|         310|  5.9608e+00|  3.5903e-09|  7.6965e-01|  5.0000e-01|  5.0000e-01|  5.0000e-01|   -5.974168|   -6.097159|   -6.670746|   -6.308432|   -6.267656|   -8.779571|    2.049472|
|         311|  5.9604e+00|  3.5903e-09|  7.6965e-01|  5.0000e-01|  5.0000e-01|  5.0000e-01|   -5.973569|   -6.096459|   -6.670509|   -6.307935|   -6.267130|   -8.779596|    2.049452|
|         312|  5.9601e+00|  3.5903e-09|  7.6965e-01|  5.0000e-01|  5.0000e-01|  5.0000e-01|   -5.972970|   -6.095760|   -6.670273|   -6.307438|   -6.266604|   -8.779620|    2.049432|
|         313|  5.9596e+00|  3.5902e-09|  7.6965e-01|  5.0000e-01|  5.0000e-01|  5.0000e-01|   -5.972372|   -6.095062|   -6.670035|   -6.306942|   -6.266077|   -8.779644|    2.049412|
|         314|  5.9594e+00|  3.5902e-09|  7.6965e-01|  5.0000e-01|  5.0000e-01|  5.0000e-01|   -5.971776|   -6.094364|   -6.669798|   -6.306446|   -6.265550|   -8.779668|    2.049393|
|         315|  5.9587e+00|  3.5902e-09|  7.6965e-01|  5.0000e-01|  5.0000e-01|  5.0000e-01|   -5.971180|   -6.093667|   -6.669560|   -6.305951|   -6.265023|   -8.779693|    2.049373|
|         316|  5.9583e+00|  3.5902e-09|  7.6965e-01|  5.0000e-01|  5.0000e-01|  5.0000e-01|   -5.970585|   -6.092971|   -6.669321|   -6.305457|   -6.264496|   -8.779717|    2.049354|
|         317|  5.9581e+00|  3.5902e-09|  7.6965e-01|  5.0000e-01|  5.0000e-01|  5.0000e-01|   -5.969991|   -6.092275|   -6.669083|   -6.304963|   -6.263968|   -8.779741|    2.049334|
|         318|  5.9579e+00|  3.5902e-09|  7.6965e-01|  5.0000e-01|  5.0000e-01|  5.0000e-01|   -5.969399|   -6.091580|   -6.668844|   -6.304470|   -6.263440|   -8.779766|    2.049315|
|         319|  5.9577e+00|  3.5901e-09|  7.6965e-01|  5.0000e-01|  5.0000e-01|  5.0000e-01|   -5.968807|   -6.090885|   -6.668605|   -6.303977|   -6.262912|   -8.779790|    2.049296|
|         320|  5.9573e+00|  3.5901e-09|  7.6965e-01|  5.0000e-01|  5.0000e-01|  5.0000e-01|   -5.968216|   -6.090192|   -6.668366|   -6.303485|   -6.262384|   -8.779814|    2.049277|
|         321|  5.9566e+00|  3.5901e-09|  7.6965e-01|  5.0000e-01|  5.0000e-01|  5.0000e-01|   -5.967626|   -6.089499|   -6.668126|   -6.302993|   -6.261855|   -8.779838|    2.049257|
|         322|  5.9559e+00|  3.5901e-09|  7.6965e-01|  5.0000e-01|  5.0000e-01|  5.0000e-01|   -5.967038|   -6.088807|   -6.667886|   -6.302502|   -6.261327|   -8.779862|    2.049238|
|         323|  5.9559e+00|  3.5901e-09|  7.6965e-01|  5.0000e-01|  5.0000e-01|  5.0000e-01|   -5.966450|   -6.088116|   -6.667646|   -6.302012|   -6.260798|   -8.779887|    2.049219|
|         324|  5.9555e+00|  3.5901e-09|  7.6965e-01|  5.0000e-01|  5.0000e-01|  5.0000e-01|   -5.965864|   -6.087425|   -6.667406|   -6.301523|   -6.260270|   -8.779911|    2.049201|
|         325|  5.9551e+00|  3.5900e-09|  7.6965e-01|  5.0000e-01|  5.0000e-01|  5.0000e-01|   -5.965279|   -6.086736|   -6.667165|   -6.301034|   -6.259741|   -8.779935|    2.049182|
|         326|  5.9543e+00|  3.5900e-09|  7.6965e-01|  5.0000e-01|  5.0000e-01|  5.0000e-01|   -5.964695|   -6.086048|   -6.666924|   -6.300546|   -6.259213|   -8.779959|    2.049163|
|         327|  5.9538e+00|  3.5900e-09|  7.6965e-01|  5.0000e-01|  5.0000e-01|  5.0000e-01|   -5.964113|   -6.085361|   -6.666684|   -6.300059|   -6.258684|   -8.779983|    2.049145|
|         328|  5.9529e+00|  3.5900e-09|  7.6965e-01|  5.0000e-01|  5.0000e-01|  5.0000e-01|   -5.963531|   -6.084675|   -6.666443|   -6.299573|   -6.258156|   -8.780006|    2.049126|
|         329|  5.9526e+00|  3.5900e-09|  7.6965e-01|  5.0000e-01|  5.0000e-01|  5.0000e-01|   -5.962952|   -6.083989|   -6.666202|   -6.299088|   -6.257628|   -8.780030|    2.049108|
|         330|  5.9524e+00|  3.5900e-09|  7.6965e-01|  5.0000e-01|  5.0000e-01|  5.0000e-01|   -5.962373|   -6.083306|   -6.665960|   -6.298604|   -6.257100|   -8.780054|    2.049089|
|         331|  5.9522e+00|  3.5900e-09|  7.6965e-01|  5.0000e-01|  5.0000e-01|  5.0000e-01|   -5.961796|   -6.082623|   -6.665719|   -6.298121|   -6.256573|   -8.780078|    2.049071|
|         332|  5.9520e+00|  3.5899e-09|  7.6965e-01|  5.0000e-01|  5.0000e-01|  5.0000e-01|   -5.961220|   -6.081941|   -6.665478|   -6.297639|   -6.256045|   -8.780101|    2.049053|
|         333|  5.9518e+00|  3.5899e-09|  7.6965e-01|  5.0000e-01|  5.0000e-01|  5.0000e-01|   -5.960645|   -6.081260|   -6.665237|   -6.297157|   -6.255518|   -8.780125|    2.049035|
|         334|  5.9514e+00|  3.5899e-09|  7.6965e-01|  5.0000e-01|  5.0000e-01|  5.0000e-01|   -5.960072|   -6.080581|   -6.664996|   -6.296678|   -6.254991|   -8.780149|    2.049017|
|         335|  5.9510e+00|  3.5899e-09|  7.6965e-01|  5.0000e-01|  5.0000e-01|  5.0000e-01|   -5.959501|   -6.079903|   -6.664755|   -6.296200|   -6.254465|   -8.780172|    2.048999|
|         336|  5.9505e+00|  3.5899e-09|  7.6965e-01|  5.0000e-01|  5.0000e-01|  5.0000e-01|   -5.958931|   -6.079226|   -6.664514|   -6.295722|   -6.253939|   -8.780196|    2.048981|
|         337|  5.9503e+00|  3.5899e-09|  7.6965e-01|  5.0000e-01|  5.0000e-01|  5.0000e-01|   -5.958363|   -6.078551|   -6.664273|   -6.295245|   -6.253413|   -8.780219|    2.048963|
|         338|  5.9498e+00|  3.5898e-09|  7.6965e-01|  5.0000e-01|  5.0000e-01|  5.0000e-01|   -5.957796|   -6.077876|   -6.664033|   -6.294769|   -6.252888|   -8.780242|    2.048946|
|         339|  5.9496e+00|  3.5898e-09|  7.6965e-01|  5.0000e-01|  5.0000e-01|  5.0000e-01|   -5.957230|   -6.077204|   -6.663792|   -6.294294|   -6.252363|   -8.780266|    2.048928|
|         340|  5.9493e+00|  3.5898e-09|  7.6965e-01|  5.0000e-01|  5.0000e-01|  5.0000e-01|   -5.956667|   -6.076533|   -6.663552|   -6.293821|   -6.251838|   -8.780289|    2.048910|
|         341|  5.9488e+00|  3.5898e-09|  7.6965e-01|  5.0000e-01|  5.0000e-01|  5.0000e-01|   -5.956105|   -6.075863|   -6.663312|   -6.293349|   -6.251315|   -8.780312|    2.048893|
|         342|  5.9484e+00|  3.5898e-09|  7.6965e-01|  5.0000e-01|  5.0000e-01|  5.0000e-01|   -5.955544|   -6.075195|   -6.663073|   -6.292878|   -6.250792|   -8.780335|    2.048876|
|         343|  5.9479e+00|  3.5898e-09|  7.6965e-01|  5.0000e-01|  5.0000e-01|  5.0000e-01|   -5.954986|   -6.074528|   -6.662834|   -6.292409|   -6.250269|   -8.780358|    2.048858|
|         344|  5.9474e+00|  3.5897e-09|  7.6965e-01|  5.0000e-01|  5.0000e-01|  5.0000e-01|   -5.954429|   -6.073863|   -6.662595|   -6.291941|   -6.249747|   -8.780381|    2.048841|
|         345|  5.9471e+00|  3.5897e-09|  7.6965e-01|  5.0000e-01|  5.0000e-01|  5.0000e-01|   -5.953874|   -6.073200|   -6.662357|   -6.291474|   -6.249226|   -8.780404|    2.048824|
|         346|  5.9467e+00|  3.5897e-09|  7.6965e-01|  5.0000e-01|  5.0000e-01|  5.0000e-01|   -5.953320|   -6.072538|   -6.662119|   -6.291010|   -6.248706|   -8.780427|    2.048807|
|         347|  5.9461e+00|  3.5897e-09|  7.6965e-01|  5.0000e-01|  5.0000e-01|  5.0000e-01|   -5.952769|   -6.071878|   -6.661881|   -6.290545|   -6.248186|   -8.780450|    2.048790|
|         348|  5.9455e+00|  3.5897e-09|  7.6965e-01|  5.0000e-01|  5.0000e-01|  5.0000e-01|   -5.952219|   -6.071219|   -6.661644|   -6.290082|   -6.247667|   -8.780473|    2.048773|
|         349|  5.9450e+00|  3.5897e-09|  7.6965e-01|  5.0000e-01|  5.0000e-01|  5.0000e-01|   -5.951670|   -6.070562|   -6.661407|   -6.289620|   -6.247148|   -8.780493|    2.048757|
[...]
|       10323|  6.1579e+00|  3.4342e-09|  7.6965e-01|  5.0000e-01|  5.0000e-01|  5.0000e-01|   -5.702213|   -5.803016|   -6.430790|   -6.024458|   -5.974498|   -8.549642|    2.045600|
|       10324|  6.1578e+00|  3.4342e-09|  7.6965e-01|  5.0000e-01|  5.0000e-01|  5.0000e-01|   -5.702775|   -5.803560|   -6.431030|   -6.024952|   -5.974924|   -8.549788|    2.045633|
|       10325|  6.1578e+00|  3.4342e-09|  7.6965e-01|  5.0000e-01|  5.0000e-01|  5.0000e-01|   -5.703340|   -5.804108|   -6.431271|   -6.025447|   -5.975352|   -8.549934|    2.045666|
|       10326|  6.1578e+00|  3.4342e-09|  7.6965e-01|  5.0000e-01|  5.0000e-01|  5.0000e-01|   -5.703908|   -5.804660|   -6.431514|   -6.025945|   -5.975784|   -8.550080|    2.045699|
|       10327|  6.1577e+00|  3.4342e-09|  7.6965e-01|  5.0000e-01|  5.0000e-01|  5.0000e-01|   -5.704478|   -5.805215|   -6.431757|   -6.026445|   -5.976218|   -8.550227|    2.045732|
|       10328|  6.1577e+00|  3.4342e-09|  7.6965e-01|  5.0000e-01|  5.0000e-01|  5.0000e-01|   -5.705052|   -5.805774|   -6.432001|   -6.026946|   -5.976654|   -8.550374|    2.045766|
|       10329|  6.1577e+00|  3.4342e-09|  7.6965e-01|  5.0000e-01|  5.0000e-01|  5.0000e-01|   -5.705628|   -5.806336|   -6.432247|   -6.027450|   -5.977094|   -8.550522|    2.045799|
|       10330|  6.1577e+00|  3.4341e-09|  7.6965e-01|  5.0000e-01|  5.0000e-01|  5.0000e-01|   -5.706207|   -5.806902|   -6.432494|   -6.027956|   -5.977536|   -8.550670|    2.045833|
|       10331|  6.1577e+00|  3.4341e-09|  7.6965e-01|  5.0000e-01|  5.0000e-01|  5.0000e-01|   -5.706789|   -5.807471|   -6.432742|   -6.028464|   -5.977981|   -8.550818|    2.045867|
|       10332|  6.1576e+00|  3.4341e-09|  7.6965e-01|  5.0000e-01|  5.0000e-01|  5.0000e-01|   -5.707373|   -5.808044|   -6.432991|   -6.028974|   -5.978429|   -8.550967|    2.045901|
|       10333|  6.1576e+00|  3.4341e-09|  7.6965e-01|  5.0000e-01|  5.0000e-01|  5.0000e-01|   -5.707960|   -5.808619|   -6.433240|   -6.029485|   -5.978879|   -8.551116|    2.045935|
|       10334|  6.1576e+00|  3.4341e-09|  7.6965e-01|  5.0000e-01|  5.0000e-01|  5.0000e-01|   -5.708550|   -5.809198|   -6.433490|   -6.029998|   -5.979331|   -8.551265|    2.045969|
|       10335|  6.1575e+00|  3.4341e-09|  7.6965e-01|  5.0000e-01|  5.0000e-01|  5.0000e-01|   -5.709142|   -5.809781|   -6.433741|   -6.030513|   -5.979786|   -8.551415|    2.046003|
|       10336|  6.1575e+00|  3.4341e-09|  7.6965e-01|  5.0000e-01|  5.0000e-01|  5.0000e-01|   -5.709737|   -5.810366|   -6.433992|   -6.031030|   -5.980243|   -8.551565|    2.046038|
|       10337|  6.1575e+00|  3.4341e-09|  7.6965e-01|  5.0000e-01|  5.0000e-01|  5.0000e-01|   -5.710334|   -5.810955|   -6.434244|   -6.031548|   -5.980703|   -8.551716|    2.046072|
|       10338|  6.1575e+00|  3.4340e-09|  7.6965e-01|  5.0000e-01|  5.0000e-01|  5.0000e-01|   -5.710934|   -5.811547|   -6.434496|   -6.032069|   -5.981166|   -8.551866|    2.046107|
|       10339|  6.1574e+00|  3.4340e-09|  7.6965e-01|  5.0000e-01|  5.0000e-01|  5.0000e-01|   -5.711536|   -5.812143|   -6.434750|   -6.032591|   -5.981631|   -8.552017|    2.046142|
|       10340|  6.1574e+00|  3.4340e-09|  7.6965e-01|  5.0000e-01|  5.0000e-01|  5.0000e-01|   -5.712141|   -5.812741|   -6.435004|   -6.033115|   -5.982098|   -8.552168|    2.046177|
|       10341|  6.1574e+00|  3.4340e-09|  7.6965e-01|  5.0000e-01|  5.0000e-01|  5.0000e-01|   -5.712748|   -5.813342|   -6.435258|   -6.033640|   -5.982566|   -8.552320|    2.046212|
|       10342|  6.1574e+00|  3.4340e-09|  7.6965e-01|  5.0000e-01|  5.0000e-01|  5.0000e-01|   -5.713356|   -5.813946|   -6.435513|   -6.034167|   -5.983037|   -8.552472|    2.046247|
|       10343|  6.1573e+00|  3.4340e-09|  7.6965e-01|  5.0000e-01|  5.0000e-01|  5.0000e-01|   -5.713967|   -5.814553|   -6.435768|   -6.034694|   -5.983510|   -8.552623|    2.046282|
|       10344|  6.1573e+00|  3.4340e-09|  7.6965e-01|  5.0000e-01|  5.0000e-01|  5.0000e-01|   -5.714580|   -5.815163|   -6.436023|   -6.035223|   -5.983984|   -8.552776|    2.046318|
|       10345|  6.1573e+00|  3.4340e-09|  7.6965e-01|  5.0000e-01|  5.0000e-01|  5.0000e-01|   -5.715194|   -5.815776|   -6.436279|   -6.035753|   -5.984461|   -8.552928|    2.046354|
|       10346|  6.1573e+00|  3.4339e-09|  7.6965e-01|  5.0000e-01|  5.0000e-01|  5.0000e-01|   -5.715811|   -5.816391|   -6.436536|   -6.036284|   -5.984939|   -8.553080|    2.046389|
|       10347|  6.1573e+00|  3.4339e-09|  7.6965e-01|  5.0000e-01|  5.0000e-01|  5.0000e-01|   -5.716430|   -5.817010|   -6.436792|   -6.036816|   -5.985420|   -8.553233|    2.046425|
|       10348|  6.1572e+00|  3.4339e-09|  7.6965e-01|  5.0000e-01|  5.0000e-01|  5.0000e-01|   -5.717051|   -5.817632|   -6.437050|   -6.037349|   -5.985902|   -8.553386|    2.046461|
|       10349|  6.1572e+00|  3.4339e-09|  7.6965e-01|  5.0000e-01|  5.0000e-01|  5.0000e-01|   -5.717673|   -5.818256|   -6.437308|   -6.037883|   -5.986387|   -8.553539|    2.046497|
|       10350|  6.1572e+00|  3.4339e-09|  7.6965e-01|  5.0000e-01|  5.0000e-01|  5.0000e-01|   -5.718298|   -5.818884|   -6.437566|   -6.038419|   -5.986873|   -8.553692|    2.046534|
+-----------------------------------------------------------------------+
|        File Writing Summary       |              Filename             |
+-----------------------------------------------------------------------+
|SU2 binary restart                 |restart_flow.dat                   |
|Paraview                           |flow.vtu                           |
|Paraview surface                   |surface_flow.vtu                   |
+-----------------------------------------------------------------------+
+-------------------------------------------------------------------------------------------------------------------------------------------------------------------------------------+
|  Inner_Iter|   Time(sec)|      Min DT|      Max DT|     Min CFL|     Max CFL|     Avg CFL|    rms[Rho]|   rms[RhoU]|   rms[RhoV]|   rms[RhoW]|   rms[RhoE]|     rms[nu]|          CD|
+-------------------------------------------------------------------------------------------------------------------------------------------------------------------------------------+
|       10351|  6.1598e+00|  3.4339e-09|  7.6965e-01|  5.0000e-01|  5.0000e-01|  5.0000e-01|   -5.718924|   -5.819514|   -6.437824|   -6.038955|   -5.987360|   -8.553845|    2.046570|
|       10352|  6.1598e+00|  3.4339e-09|  7.6965e-01|  5.0000e-01|  5.0000e-01|  5.0000e-01|   -5.719552|   -5.820147|   -6.438083|   -6.039493|   -5.987850|   -8.553998|    2.046607|
|       10353|  6.1599e+00|  3.4339e-09|  7.6965e-01|  5.0000e-01|  5.0000e-01|  5.0000e-01|   -5.720182|   -5.820782|   -6.438343|   -6.040031|   -5.988342|   -8.554152|    2.046643|
|       10354|  6.1599e+00|  3.4338e-09|  7.6965e-01|  5.0000e-01|  5.0000e-01|  5.0000e-01|   -5.720814|   -5.821421|   -6.438603|   -6.040571|   -5.988836|   -8.554305|    2.046680|
|       10355|  6.1599e+00|  3.4338e-09|  7.6965e-01|  5.0000e-01|  5.0000e-01|  5.0000e-01|   -5.721447|   -5.822062|   -6.438863|   -6.041112|   -5.989331|   -8.554459|    2.046717|
|       10356|  6.1599e+00|  3.4338e-09|  7.6965e-01|  5.0000e-01|  5.0000e-01|  5.0000e-01|   -5.722082|   -5.822707|   -6.439123|   -6.041653|   -5.989828|   -8.554612|    2.046754|
|       10357|  6.1599e+00|  3.4338e-09|  7.6965e-01|  5.0000e-01|  5.0000e-01|  5.0000e-01|   -5.722719|   -5.823353|   -6.439383|   -6.042196|   -5.990327|   -8.554766|    2.046791|
|       10358|  6.1599e+00|  3.4338e-09|  7.6965e-01|  5.0000e-01|  5.0000e-01|  5.0000e-01|   -5.723358|   -5.824003|   -6.439644|   -6.042739|   -5.990827|   -8.554919|    2.046829|
|       10359|  6.1600e+00|  3.4338e-09|  7.6965e-01|  5.0000e-01|  5.0000e-01|  5.0000e-01|   -5.723998|   -5.824655|   -6.439905|   -6.043283|   -5.991330|   -8.555073|    2.046866|
|       10360|  6.1599e+00|  3.4338e-09|  7.6965e-01|  5.0000e-01|  5.0000e-01|  5.0000e-01|   -5.724640|   -5.825310|   -6.440166|   -6.043828|   -5.991834|   -8.555226|    2.046904|
|       10361|  6.1599e+00|  3.4338e-09|  7.6965e-01|  5.0000e-01|  5.0000e-01|  5.0000e-01|   -5.725284|   -5.825968|   -6.440428|   -6.044374|   -5.992340|   -8.555380|    2.046941|
|       10362|  6.1599e+00|  3.4337e-09|  7.6965e-01|  5.0000e-01|  5.0000e-01|  5.0000e-01|   -5.725929|   -5.826628|   -6.440690|   -6.044921|   -5.992848|   -8.555533|    2.046979|
|       10363|  6.1599e+00|  3.4337e-09|  7.6965e-01|  5.0000e-01|  5.0000e-01|  5.0000e-01|   -5.726576|   -5.827291|   -6.440953|   -6.045468|   -5.993357|   -8.555687|    2.047017|
|       10364|  6.1599e+00|  3.4337e-09|  7.6965e-01|  5.0000e-01|  5.0000e-01|  5.0000e-01|   -5.727224|   -5.827957|   -6.441216|   -6.046017|   -5.993869|   -8.555840|    2.047055|
|       10365|  6.1599e+00|  3.4337e-09|  7.6965e-01|  5.0000e-01|  5.0000e-01|  5.0000e-01|   -5.727875|   -5.828625|   -6.441479|   -6.046567|   -5.994382|   -8.555993|    2.047093|
|       10366|  6.1599e+00|  3.4337e-09|  7.6965e-01|  5.0000e-01|  5.0000e-01|  5.0000e-01|   -5.728527|   -5.829296|   -6.441743|   -6.047117|   -5.994897|   -8.556147|    2.047132|
|       10367|  6.1599e+00|  3.4337e-09|  7.6965e-01|  5.0000e-01|  5.0000e-01|  5.0000e-01|   -5.729180|   -5.829969|   -6.442008|   -6.047668|   -5.995414|   -8.556300|    2.047170|
|       10368|  6.1599e+00|  3.4337e-09|  7.6965e-01|  5.0000e-01|  5.0000e-01|  5.0000e-01|   -5.729836|   -5.830645|   -6.442273|   -6.048220|   -5.995932|   -8.556453|    2.047208|
|       10369|  6.1598e+00|  3.4337e-09|  7.6965e-01|  5.0000e-01|  5.0000e-01|  5.0000e-01|   -5.730492|   -5.831324|   -6.442538|   -6.048773|   -5.996453|   -8.556606|    2.047247|
|       10370|  6.1598e+00|  3.4336e-09|  7.6965e-01|  5.0000e-01|  5.0000e-01|  5.0000e-01|   -5.731150|   -5.832005|   -6.442804|   -6.049326|   -5.996974|   -8.556759|    2.047286|
|       10371|  6.1598e+00|  3.4336e-09|  7.6965e-01|  5.0000e-01|  5.0000e-01|  5.0000e-01|   -5.731810|   -5.832688|   -6.443070|   -6.049881|   -5.997498|   -8.556912|    2.047325|
|       10372|  6.1598e+00|  3.4336e-09|  7.6965e-01|  5.0000e-01|  5.0000e-01|  5.0000e-01|   -5.732472|   -5.833375|   -6.443337|   -6.050436|   -5.998024|   -8.557065|    2.047364|
|       10373|  6.1598e+00|  3.4336e-09|  7.6965e-01|  5.0000e-01|  5.0000e-01|  5.0000e-01|   -5.733135|   -5.834063|   -6.443604|   -6.050992|   -5.998551|   -8.557217|    2.047403|
|       10374|  6.1597e+00|  3.4336e-09|  7.6965e-01|  5.0000e-01|  5.0000e-01|  5.0000e-01|   -5.733799|   -5.834755|   -6.443871|   -6.051549|   -5.999081|   -8.557370|    2.047442|
|       10375|  6.1597e+00|  3.4336e-09|  7.6965e-01|  5.0000e-01|  5.0000e-01|  5.0000e-01|   -5.734465|   -5.835449|   -6.444138|   -6.052106|   -5.999611|   -8.557522|    2.047481|
|       10376|  6.1597e+00|  3.4336e-09|  7.6965e-01|  5.0000e-01|  5.0000e-01|  5.0000e-01|   -5.735133|   -5.836145|   -6.444406|   -6.052665|   -6.000144|   -8.557674|    2.047521|
|       10377|  6.1597e+00|  3.4336e-09|  7.6965e-01|  5.0000e-01|  5.0000e-01|  5.0000e-01|   -5.735801|   -5.836843|   -6.444675|   -6.053223|   -6.000678|   -8.557826|    2.047560|
|       10378|  6.1597e+00|  3.4335e-09|  7.6965e-01|  5.0000e-01|  5.0000e-01|  5.0000e-01|   -5.736472|   -5.837545|   -6.444944|   -6.053783|   -6.001213|   -8.557977|    2.047600|
|       10379|  6.1597e+00|  3.4335e-09|  7.6965e-01|  5.0000e-01|  5.0000e-01|  5.0000e-01|   -5.737143|   -5.838248|   -6.445213|   -6.054343|   -6.001750|   -8.558129|    2.047640|
|       10380|  6.1596e+00|  3.4335e-09|  7.6965e-01|  5.0000e-01|  5.0000e-01|  5.0000e-01|   -5.737816|   -5.838954|   -6.445483|   -6.054903|   -6.002289|   -8.558280|    2.047680|
|       10381|  6.1596e+00|  3.4335e-09|  7.6965e-01|  5.0000e-01|  5.0000e-01|  5.0000e-01|   -5.738490|   -5.839662|   -6.445753|   -6.055464|   -6.002829|   -8.558431|    2.047720|
|       10382|  6.1596e+00|  3.4335e-09|  7.6965e-01|  5.0000e-01|  5.0000e-01|  5.0000e-01|   -5.739165|   -5.840373|   -6.446024|   -6.056025|   -6.003371|   -8.558582|    2.047760|
|       10383|  6.1596e+00|  3.4335e-09|  7.6965e-01|  5.0000e-01|  5.0000e-01|  5.0000e-01|   -5.739842|   -5.841086|   -6.446295|   -6.056587|   -6.003914|   -8.558733|    2.047800|
|       10384|  6.1596e+00|  3.4335e-09|  7.6965e-01|  5.0000e-01|  5.0000e-01|  5.0000e-01|   -5.740520|   -5.841801|   -6.446566|   -6.057149|   -6.004459|   -8.558883|    2.047840|
|       10385|  6.1596e+00|  3.4335e-09|  7.6965e-01|  5.0000e-01|  5.0000e-01|  5.0000e-01|   -5.741199|   -5.842518|   -6.446837|   -6.057712|   -6.005006|   -8.559033|    2.047881|
|       10386|  6.1596e+00|  3.4334e-09|  7.6965e-01|  5.0000e-01|  5.0000e-01|  5.0000e-01|   -5.741879|   -5.843239|   -6.447109|   -6.058275|   -6.005554|   -8.559183|    2.047921|
|       10387|  6.1595e+00|  3.4334e-09|  7.6965e-01|  5.0000e-01|  5.0000e-01|  5.0000e-01|   -5.742561|   -5.843961|   -6.447381|   -6.058839|   -6.006103|   -8.559333|    2.047962|
|       10388|  6.1595e+00|  3.4334e-09|  7.6965e-01|  5.0000e-01|  5.0000e-01|  5.0000e-01|   -5.743244|   -5.844686|   -6.447653|   -6.059404|   -6.006654|   -8.559482|    2.048003|
|       10389|  6.1595e+00|  3.4334e-09|  7.6965e-01|  5.0000e-01|  5.0000e-01|  5.0000e-01|   -5.743927|   -5.845413|   -6.447925|   -6.059968|   -6.007207|   -8.559631|    2.048044|
|       10390|  6.1595e+00|  3.4334e-09|  7.6965e-01|  5.0000e-01|  5.0000e-01|  5.0000e-01|   -5.744612|   -5.846143|   -6.448198|   -6.060533|   -6.007761|   -8.559780|    2.048085|
|       10391|  6.1595e+00|  3.4334e-09|  7.6965e-01|  5.0000e-01|  5.0000e-01|  5.0000e-01|   -5.745298|   -5.846875|   -6.448471|   -6.061098|   -6.008316|   -8.559929|    2.048126|
|       10392|  6.1595e+00|  3.4334e-09|  7.6965e-01|  5.0000e-01|  5.0000e-01|  5.0000e-01|   -5.745985|   -5.847609|   -6.448744|   -6.061664|   -6.008872|   -8.560077|    2.048167|
|       10393|  6.1594e+00|  3.4334e-09|  7.6965e-01|  5.0000e-01|  5.0000e-01|  5.0000e-01|   -5.746672|   -5.848345|   -6.449017|   -6.062229|   -6.009430|   -8.560225|    2.048208|
|       10394|  6.1594e+00|  3.4333e-09|  7.6965e-01|  5.0000e-01|  5.0000e-01|  5.0000e-01|   -5.747361|   -5.849084|   -6.449290|   -6.062795|   -6.009989|   -8.560372|    2.048249|
|       10395|  6.1594e+00|  3.4333e-09|  7.6965e-01|  5.0000e-01|  5.0000e-01|  5.0000e-01|   -5.748049|   -5.849824|   -6.449562|   -6.063360|   -6.010549|   -8.560519|    2.048291|
|       10396|  6.1594e+00|  3.4333e-09|  7.6965e-01|  5.0000e-01|  5.0000e-01|  5.0000e-01|   -5.748738|   -5.850567|   -6.449835|   -6.063925|   -6.011109|   -8.560666|    2.048332|
|       10397|  6.1594e+00|  3.4333e-09|  7.6965e-01|  5.0000e-01|  5.0000e-01|  5.0000e-01|   -5.749429|   -5.851312|   -6.450109|   -6.064490|   -6.011672|   -8.560812|    2.048374|
|       10398|  6.1593e+00|  3.4333e-09|  7.6965e-01|  5.0000e-01|  5.0000e-01|  5.0000e-01|   -5.750120|   -5.852058|   -6.450382|   -6.065056|   -6.012235|   -8.560957|    2.048415|
|       10399|  6.1593e+00|  3.4333e-09|  7.6965e-01|  5.0000e-01|  5.0000e-01|  5.0000e-01|   -5.750812|   -5.852807|   -6.450656|   -6.065622|   -6.012801|   -8.561102|    2.048457|
|       10400|  6.1593e+00|  3.4333e-09|  7.6965e-01|  5.0000e-01|  5.0000e-01|  5.0000e-01|   -5.751505|   -5.853558|   -6.450930|   -6.066187|   -6.013367|   -8.561247|    2.048499|
|       10401|  6.1593e+00|  3.4332e-09|  7.6965e-01|  5.0000e-01|  5.0000e-01|  5.0000e-01|   -5.752198|   -5.854311|   -6.451204|   -6.066753|   -6.013934|   -8.561391|    2.048541|
|       10402|  6.1593e+00|  3.4332e-09|  7.6965e-01|  5.0000e-01|  5.0000e-01|  5.0000e-01|   -5.752892|   -5.855066|   -6.451478|   -6.067317|   -6.014502|   -8.561535|    2.048583|
|       10403|  6.1593e+00|  3.4332e-09|  7.6965e-01|  5.0000e-01|  5.0000e-01|  5.0000e-01|   -5.753587|   -5.855822|   -6.451752|   -6.067882|   -6.015072|   -8.561678|    2.048625|
|       10404|  6.1592e+00|  3.4332e-09|  7.6965e-01|  5.0000e-01|  5.0000e-01|  5.0000e-01|   -5.754282|   -5.856580|   -6.452026|   -6.068447|   -6.015642|   -8.561820|    2.048667|
|       10405|  6.1592e+00|  3.4332e-09|  7.6965e-01|  5.0000e-01|  5.0000e-01|  5.0000e-01|   -5.754977|   -5.857340|   -6.452300|   -6.069011|   -6.016214|   -8.561962|    2.048710|
|       10406|  6.1592e+00|  3.4332e-09|  7.6965e-01|  5.0000e-01|  5.0000e-01|  5.0000e-01|   -5.755674|   -5.858102|   -6.452574|   -6.069575|   -6.016786|   -8.562103|    2.048752|
|       10407|  6.1592e+00|  3.4332e-09|  7.6965e-01|  5.0000e-01|  5.0000e-01|  5.0000e-01|   -5.756370|   -5.858865|   -6.452847|   -6.070138|   -6.017360|   -8.562243|    2.048795|
|       10408|  6.1592e+00|  3.4332e-09|  7.6965e-01|  5.0000e-01|  5.0000e-01|  5.0000e-01|   -5.757067|   -5.859630|   -6.453121|   -6.070700|   -6.017934|   -8.562383|    2.048837|
|       10409|  6.1592e+00|  3.4331e-09|  7.6965e-01|  5.0000e-01|  5.0000e-01|  5.0000e-01|   -5.757764|   -5.860397|   -6.453394|   -6.071262|   -6.018509|   -8.562523|    2.048880|
|       10410|  6.1592e+00|  3.4331e-09|  7.6965e-01|  5.0000e-01|  5.0000e-01|  5.0000e-01|   -5.758461|   -5.861165|   -6.453666|   -6.071823|   -6.019085|   -8.562661|    2.048922|
|       10411|  6.1591e+00|  3.4331e-09|  7.6965e-01|  5.0000e-01|  5.0000e-01|  5.0000e-01|   -5.759159|   -5.861934|   -6.453939|   -6.072384|   -6.019662|   -8.562799|    2.048965|
|       10412|  6.1591e+00|  3.4331e-09|  7.6965e-01|  5.0000e-01|  5.0000e-01|  5.0000e-01|   -5.759857|   -5.862706|   -6.454211|   -6.072945|   -6.020239|   -8.562937|    2.049008|
|       10413|  6.1591e+00|  3.4331e-09|  7.6965e-01|  5.0000e-01|  5.0000e-01|  5.0000e-01|   -5.760555|   -5.863479|   -6.454484|   -6.073504|   -6.020818|   -8.563073|    2.049051|

scontrol show job 1163489
JobId=1163489 JobName=m6_aoa24
   UserId=anthonyy(3152141) GroupId=anthonyy(3152141) MCS_label=N/A
   Priority=524882 Nice=0 Account=rrg-jphickey QOS=normal
   JobState=COMPLETING Reason=TimeLimit Dependency=(null)
   Requeue=0 Restarts=0 BatchFlag=1 Reboot=0 ExitCode=0:15
   RunTime=18:00:10 TimeLimit=18:00:00 TimeMin=N/A
   SubmitTime=2026-03-10T23:17:48 EligibleTime=2026-03-10T23:17:48
   AccrueTime=2026-03-10T23:17:48
   StartTime=2026-03-14T19:11:09 EndTime=2026-03-15T13:11:19 Deadline=N/A
   SuspendTime=None SecsPreSuspend=0 LastSchedEval=2026-03-14T19:11:09 Scheduler=Backfill
   Partition=compute AllocNode:Sid=tri-login03:3231923
   ReqNodeList=(null) ExcNodeList=(null)
   NodeList=tri[0938,1029]
   BatchHost=tri0938
   NumNodes=2 NumCPUs=384 NumTasks=128 CPUs/Task=1 ReqB:S:C:T=0:0:*:*
   ReqTRES=cpu=128,mem=1534000M,node=2,billing=128
   AllocTRES=cpu=384,mem=1534000M,node=2,billing=384
   Socks/Node=* NtasksPerN:B:S:C=64:0:*:* CoreSpec=*
   MinCPUsNode=64 MinMemoryNode=0 MinTmpDiskNode=0
   Features=(null) DelayBoot=00:00:00
   OverSubscribe=NO Contiguous=0 Licenses=(null) Network=(null)
   Command=/scratch/anthonyy/reentry/orion/cases/m6_aoa24/run.sh
   WorkDir=/scratch/anthonyy/reentry/orion/cases/m6_aoa24
   Comment=/opt/slurm/bin/sbatch --export=NONE --get-user-env=L run.sh 
   StdErr=/scratch/anthonyy/reentry/orion/cases/m6_aoa24/orion_1163489.err
   StdIn=/dev/null
   StdOut=/scratch/anthonyy/reentry/orion/cases/m6_aoa24/orion_1163489.out
   TresPerTask=cpu=1
   

sacct -j 1163489
JobID           JobName    Account    Elapsed  MaxVMSize     MaxRSS  SystemCPU    UserCPU ExitCode 
------------ ---------- ---------- ---------- ---------- ---------- ---------- ---------- -------- 
1163489        m6_aoa24 rrg-jphic+   18:00:10                        00:00.147  00:00.579      0:0 
1163489.bat+      batch rrg-jphic+   18:00:11          0      9264K  00:00.147  00:00.579     0:15 
1163489.ext+     extern rrg-jphic+   18:00:10                         00:00:00   00:00:00      0:0 
1163489.0       SU2_CFD rrg-jphic+   18:00:04                         00:00:00   00:00:00      0:0 

