Nodes: tri[0166,0396]
Tasks: 128
NPN:   64

-------------------------------------------------------------------------
|    ___ _   _ ___                                                      |
|   / __| | | |_  )   Release 7.5.1 "Blackbird"                         |
|   \__ \ |_| |/ /                                                      |
|   |___/\___//___|   Suite (Computational Fluid Dynamics Code)         |
|                                                                       |
-------------------------------------------------------------------------
| SU2 Project Website: https://su2code.github.io                        |
|                                                                       |
| The SU2 Project is maintained by the SU2 Foundation                   |
| (http://su2foundation.org)                                            |
-------------------------------------------------------------------------
| Copyright 2012-2023, SU2 Contributors                                 |
|                                                                       |
| SU2 is free software; you can redistribute it and/or                  |
| modify it under the terms of the GNU Lesser General Public            |
| License as published by the Free Software Foundation; either          |
| version 2.1 of the License, or (at your option) any later version.    |
|                                                                       |
| SU2 is distributed in the hope that it will be useful,                |
| but WITHOUT ANY WARRANTY; without even the implied warranty of        |
| MERCHANTABILITY or FITNESS FOR A PARTICULAR PURPOSE. See the GNU      |
| Lesser General Public License for more details.                       |
|                                                                       |
| You should have received a copy of the GNU Lesser General Public      |
| License along with SU2. If not, see <http://www.gnu.org/licenses/>.   |
-------------------------------------------------------------------------

Parsing config file for zone 0

----------------- Physical Case Definition ( Zone 0 ) -------------------
Compressible RANS equations.
Turbulence model: Spalart-Allmaras-noft2
Hybrid RANS/LES: No Hybrid RANS/LES
Mach number: 6.
Angle of attack (AoA): 0 deg, and angle of sideslip (AoS): 0 deg.
Reynolds number: 6.86229e+08. Reference length 5.
Reading and writing binary SU2 native restart files.
Read flow solution from: restart_flow.dat.
Non-Dimensional simulation (V=1.0, Rho=1.0, T=1.0 at the farfield).
The reference area will be computed using y(2D) or z(3D) projection.
The semi-span will be computed using the max y(3D) value.
The reference length is 0.64607 m.
Reference origin for moment evaluation is (0.25, 0, 0).
Surface(s) where the force coefficients are evaluated: ORION_SURFACE.

Input mesh file name: fine.su2

--------------- Space Numerical Integration ( Zone 0 ) ------------------
Jameson-Schmidt-Turkel scheme (2nd order in space) for the flow inviscid terms.
JST viscous coefficients (2nd & 4th): 0.5, 0.02.
The method includes a grid stretching correction (p = 0.3).
Scalar upwind solver for the turbulence model.
First order integration in space.
Average of gradients with correction (viscous flow terms).
Average of gradients with correction (viscous turbulence terms).
Gradient for upwind reconstruction: Green-Gauss.
Gradient for viscous and source terms: Green-Gauss.

--------------- Time Numerical Integration  ( Zone 0 ) ------------------
Local time stepping (steady state simulation).
Euler implicit method for the flow equations.
FGMRES is used for solving the linear system.
Using a ILU(0) preconditioning.
Convergence criteria of the linear solver: 1e-06.
Max number of linear iterations: 50.
CFL adaptation. Factor down: 0.5, factor up: 1.1,
                lower limit: 0.05, upper limit: 0.5,
                acceptable linear residual: 0.001.
Courant-Friedrichs-Lewy number:     0.05
Euler implicit time integration for the turbulence model.

------------------ Convergence Criteria  ( Zone 0 ) ---------------------
Maximum number of solver subiterations: 999999.
Begin convergence monitoring at iteration 5.
Residual minimum value: 1e-8.
Cauchy series min. value: 1e-10.
Number of Cauchy elements: 100.
Begin windowed time average at iteration 0.

-------------------- Output Information ( Zone 0 ) ----------------------
File writing frequency: 
+------------------------------------+
|                     File| Frequency|
+------------------------------------+
|                  RESTART|       150|
|                 PARAVIEW|       150|
|         SURFACE_PARAVIEW|       150|
+------------------------------------+
Writing the convergence history file every 1 inner iterations.
Writing the screen convergence history every 1 inner iterations.
The tabular file format is CSV (.csv).
Convergence history file name: history.
Forces breakdown file name: forces_breakdown.dat.
Surface file name: surface_flow.
Volume file name: flow.
Restart file name: restart_flow.

------------- Config File Boundary Information ( Zone 0 ) ---------------
+-----------------------------------------------------------------------+
|                        Marker Type|                        Marker Name|
+-----------------------------------------------------------------------+
|                          Far-field|                           FARFIELD|
+-----------------------------------------------------------------------+
|                     Heat flux wall|                      ORION_SURFACE|
+-----------------------------------------------------------------------+

-------------------- Output Preprocessing ( Zone 0 ) --------------------

WARNING: SURFACE_PRESSURE_DROP can only be computed for at least 2 surfaces (outlet, inlet, ...)

Screen output fields: INNER_ITER, WALL_TIME, MIN_DELTA_TIME, MAX_DELTA_TIME, MIN_CFL, MAX_CFL, AVG_CFL, RMS_DENSITY, RMS_MOMENTUM-X, RMS_MOMENTUM-Y, RMS_MOMENTUM-Z, RMS_ENERGY, RMS_NU_TILDE, DRAG
History output group(s): ITER, RMS_RES
Convergence field(s): RMS_DENSITY
Warning: No (valid) fields chosen for time convergence monitoring. Time convergence monitoring inactive.
Volume output fields: MACH, PRESSURE, TEMPERATURE, DENSITY, HEAT_FLUX, Y_PLUS, COORDINATES, SOLUTION

------------------- Geometry Preprocessing ( Zone 0 ) -------------------
Three dimensional problem.
62211324 grid points before partitioning.
190879888 volume elements before partitioning.
2 surface markers.
4104 boundary elements in index 0 (Marker = FARFIELD).
1824836 boundary elements in index 1 (Marker = ORION_SURFACE).
Executing the partitioning functions.
Building the graph adjacency structure.
Calling ParMETIS... graph partitioning complete (4959327 edge cuts).
Distributing ParMETIS coloring.
Rebalancing vertices.
Rebalancing volume element connectivity.
Rebalancing markers and surface elements.
66952290 vertices including ghost points. 
197997438 interior elements including halo cells. 
103171259 tetrahedra.
94500655 prisms.
325524 pyramids.
Establishing MPI communication patterns.
Setting point connectivity.
Renumbering points (Reverse Cuthill McKee Ordering).
Recomputing point connectivity.
Setting element connectivity.
Checking the numerical grid orientation.
All volume elements are correctly orientend.
All surface elements are correctly orientend.
Identifying edges and vertices.
Setting the control volume structure.
Volume of the computational grid: 535693.
Searching for the closest normal neighbors to the surfaces.
Storing a mapping from global to local point index.
Compute the surface curvature.
Max K: 132.896. Mean K: 3.9104. Standard deviation K: 7.49569.
Checking for periodicity.
Computing mesh quality statistics for the dual control volumes.
+--------------------------------------------------------------+
|           Mesh Quality Metric|        Minimum|        Maximum|
+--------------------------------------------------------------+
|    Orthogonality Angle (deg.)|        53.0661|             90|
|     CV Face Area Aspect Ratio|        1.01143|        75298.5|
|           CV Sub-Volume Ratio|        1.00029|        45.0258|
+--------------------------------------------------------------+
Finding max control volume width.
Communicating number of neighbors.
Reference area = 11.531 m^2.
Semi-span length = 2.49999 m.
Wetted area = 57.9072 m^2.
Area projection in the x-plane = 19.6343 m^2, y-plane = 11.531 m^2, z-plane = 11.531 m^2.
Max. coordinate in the x-direction = 2.575 m, y-direction = 2.49999 m, z-direction = 2.49999 m.
Min. coordinate in the x-direction = -0.71 m, y-direction = -2.49999 m, z-direction = -2.5 m.
Computing wall distances.

-------------------- Solver Preprocessing ( Zone 0 ) --------------------
Viscous flow: Computing pressure using the ideal gas law
based on the free-stream temperature and a density computed
from the Reynolds number.
Force coefficients computed using free-stream values.

-- Models:
+------------------------------------------------------------------------------+
|          Viscosity Model|        Conductivity Model|              Fluid Model|
+------------------------------------------------------------------------------+
|               SUTHERLAND|          CONSTANT_PRANDTL|             STANDARD_AIR|
+------------------------------------------------------------------------------+
-- Fluid properties:
+------------------------------------------------------------------------------+
|                  Name|    Dim. value|    Ref. value|      Unit|Non-dim. value|
+------------------------------------------------------------------------------+
|        Ref. Viscosity|     1.716e-05|       2455.73|   N.s/m^2|   6.98773e-09|
|      Sutherland Temp.|        273.15|        288.15|         K|      0.947944|
|     Sutherland Const.|         110.4|        288.15|         K|      0.383134|
+------------------------------------------------------------------------------+
|        Prandtl (Lam.)|             -|             -|         -|          0.72|
|       Prandtl (Turb.)|             -|             -|         -|           0.9|
+------------------------------------------------------------------------------+
|          Gas Constant|       287.058|       14467.7|  N.m/kg.K|     0.0198413|
|      Spec. Heat Ratio|             -|             -|         -|           1.4|
+------------------------------------------------------------------------------+
-- Initial and free-stream conditions:
+------------------------------------------------------------------------------+
|                  Name|    Dim. value|    Ref. value|      Unit|Non-dim. value|
+------------------------------------------------------------------------------+
|       Static Pressure|       99485.6|   5.01407e+06|        Pa|     0.0198413|
|               Density|       1.20274|       1.20274|    kg/m^3|             1|
|           Temperature|        288.15|        288.15|         K|             1|
|          Total Energy|   2.29123e+06|   4.16887e+06|   m^2/s^2|      0.549603|
|            Velocity-X|       2041.78|       2041.78|       m/s|             1|
|            Velocity-Y|             0|       2041.78|       m/s|             0|
|            Velocity-Z|             0|       2041.78|       m/s|             0|
|    Velocity Magnitude|       2041.78|       2041.78|       m/s|             1|
+------------------------------------------------------------------------------+
|             Viscosity|    1.7893e-05|       2455.73|   N.s/m^2|    7.2862e-09|
|          Conductivity|             -|   3.55289e+07|   W/m^2.K|             -|
|     Turb. Kin. Energy|       15633.3|   4.16887e+06|   m^2/s^2|       0.00375|
|     Spec. Dissipation|   1.05085e+08|       2041.78|       1/s|       51467.1|
+------------------------------------------------------------------------------+
|           Mach Number|             -|             -|         -|             6|
|       Reynolds Number|             -|             -|         -|   6.86229e+08|
+------------------------------------------------------------------------------+
Initialize Jacobian structure (Navier-Stokes). MG level: 0.
Initialize Jacobian structure (SA model).

------------------- Numerics Preprocessing ( Zone 0 ) -------------------

----------------- Integration Preprocessing ( Zone 0 ) ------------------

------------------- Iteration Preprocessing ( Zone 0 ) ------------------
Euler/Navier-Stokes/RANS fluid iteration.

------------------------------ Begin Solver -----------------------------

Simulation Run using the Single-zone Driver
WARNING: SU2 was not compiled for an AVX-capable architecture. Performance could be better,
         see https://su2code.github.io/docs_v7/Build-SU2-Linux-MacOS/#compiler-optimizations
+-------------------------------------------------------------------------------------------------------------------------------------------------------------------------------------+
|  Inner_Iter|   Time(sec)|      Min DT|      Max DT|     Min CFL|     Max CFL|     Avg CFL|    rms[Rho]|   rms[RhoU]|   rms[RhoV]|   rms[RhoW]|   rms[RhoE]|     rms[nu]|          CD|
+-------------------------------------------------------------------------------------------------------------------------------------------------------------------------------------+
|           0|  6.1209e+00|  8.3988e-10|  7.7777e-02|  5.0000e-02|  5.5000e-02|  5.5000e-02|   -6.035938|   -6.117190|   -6.565290|   -6.672739|   -6.309246|   -4.608481|    2.493814|
|           1|  5.7255e+00|  9.2386e-10|  8.5555e-02|  5.0000e-02|  6.0500e-02|  6.0500e-02|   -6.035883|   -6.117142|   -6.565252|   -6.672701|   -6.309219|   -4.633097|    2.493812|
|           2|  5.4532e+00|  1.0162e-09|  9.4110e-02|  5.0000e-02|  6.6550e-02|  6.6550e-02|   -6.035823|   -6.117089|   -6.565210|   -6.672658|   -6.309187|   -4.475690|    2.493809|
|           3|  5.3134e+00|  1.1179e-09|  1.0352e-01|  5.0000e-02|  7.3205e-02|  7.3205e-02|   -6.035755|   -6.117029|   -6.565161|   -6.672609|   -6.309152|   -4.563608|    2.493807|
|           4|  5.2267e+00|  1.2296e-09|  1.1387e-01|  5.0000e-02|  8.0526e-02|  8.0525e-02|   -6.035679|   -6.116963|   -6.565107|   -6.672553|   -6.309111|   -4.604057|    2.493804|
|           5|  5.2312e+00|  1.3526e-09|  1.2526e-01|  5.0000e-02|  8.8578e-02|  8.8578e-02|   -6.035595|   -6.116889|   -6.565045|   -6.672490|   -6.309063|   -4.638745|    2.493801|
|           6|  5.1843e+00|  1.4879e-09|  1.3779e-01|  5.0000e-02|  9.7436e-02|  9.7436e-02|   -6.035500|   -6.116806|   -6.564974|   -6.672418|   -6.309009|   -4.435207|    2.493797|
|           7|  5.1534e+00|  1.6366e-09|  1.5157e-01|  5.0000e-02|  1.0718e-01|  1.0718e-01|   -6.035393|   -6.116714|   -6.564894|   -6.672335|   -6.308945|   -4.533370|    2.493793|
|           8|  5.1268e+00|  1.8003e-09|  1.6672e-01|  5.0000e-02|  1.1790e-01|  1.1790e-01|   -6.035274|   -6.116610|   -6.564802|   -6.672241|   -6.308872|   -4.575328|    2.493789|
|           9|  5.1051e+00|  1.9803e-09|  1.8339e-01|  5.0000e-02|  1.2969e-01|  1.2969e-01|   -6.035139|   -6.116493|   -6.564698|   -6.672133|   -6.308787|   -4.610452|    2.493785|
|          10|  5.1113e+00|  2.1783e-09|  2.0173e-01|  5.0000e-02|  1.4266e-01|  1.4266e-01|   -6.034987|   -6.116362|   -6.564578|   -6.672009|   -6.308688|   -4.645472|    2.493779|
|          11|  5.1587e+00|  2.3961e-09|  2.2191e-01|  5.0000e-02|  1.5692e-01|  1.5692e-01|   -6.034815|   -6.116213|   -6.564442|   -6.671867|   -6.308572|   -4.673523|    2.493774|
|          12|  5.1731e+00|  2.6357e-09|  2.4410e-01|  5.0000e-02|  1.7261e-01|  1.7261e-01|   -6.034622|   -6.116046|   -6.564285|   -6.671704|   -6.308437|   -4.376977|    2.493768|
|          13|  5.1847e+00|  2.8992e-09|  2.6851e-01|  5.0000e-02|  1.8987e-01|  1.8987e-01|   -6.034402|   -6.115856|   -6.564106|   -6.671517|   -6.308280|   -4.496167|    2.493761|
|          14|  5.1942e+00|  3.1891e-09|  2.9536e-01|  5.0000e-02|  2.0886e-01|  2.0886e-01|   -6.034153|   -6.115642|   -6.563900|   -6.671302|   -6.308096|   -4.541288|    2.493753|
|          15|  5.2063e+00|  3.5080e-09|  3.2489e-01|  5.0000e-02|  2.2975e-01|  2.2975e-01|   -6.033870|   -6.115397|   -6.563664|   -6.671054|   -6.307881|   -4.577403|    2.493745|
|          16|  5.2190e+00|  3.8587e-09|  3.5738e-01|  5.0000e-02|  2.5272e-01|  2.5272e-01|   -6.033548|   -6.115119|   -6.563393|   -6.670769|   -6.307628|   -4.613457|    2.493736|
|          17|  5.2377e+00|  4.2445e-09|  3.9312e-01|  5.0000e-02|  2.7800e-01|  2.7800e-01|   -6.033181|   -6.114801|   -6.563082|   -6.670442|   -6.307332|   -4.649949|    2.493726|
|          18|  5.2608e+00|  4.6689e-09|  4.3243e-01|  5.0000e-02|  3.0580e-01|  3.0580e-01|   -6.032762|   -6.114438|   -6.562725|   -6.670065|   -6.306984|   -4.687093|    2.493715|
|          19|  5.2592e+00|  5.1357e-09|  4.7568e-01|  5.0000e-02|  3.3637e-01|  3.3637e-01|   -6.032282|   -6.114021|   -6.562314|   -6.669631|   -6.306575|   -4.289746|    2.493703|
|          20|  5.2621e+00|  5.6491e-09|  5.2324e-01|  5.0000e-02|  3.7001e-01|  3.7001e-01|   -6.031733|   -6.113543|   -6.561843|   -6.669132|   -6.306094|   -4.427534|    2.493690|
|          21|  5.2861e+00|  6.2139e-09|  5.7557e-01|  5.0000e-02|  4.0701e-01|  4.0701e-01|   -6.031103|   -6.112991|   -6.561302|   -6.668558|   -6.305528|   -4.475954|    2.493675|
|          22|  5.3101e+00|  6.8351e-09|  6.3313e-01|  5.0000e-02|  4.4772e-01|  4.4772e-01|   -6.030379|   -6.112354|   -6.560681|   -6.667898|   -6.304861|   -4.513560|    2.493659|
|          23|  5.3302e+00|  7.5184e-09|  6.9644e-01|  5.0000e-02|  4.9249e-01|  4.9249e-01|   -6.029546|   -6.111617|   -6.559969|   -6.667140|   -6.304076|   -4.551271|    2.493642|
|          24|  5.3503e+00|  8.2699e-09|  7.6608e-01|  5.0000e-02|  5.0000e-01|  5.0000e-01|   -6.028586|   -6.110763|   -6.559152|   -6.666270|   -6.303152|   -4.589726|    2.493622|
|          25|  5.3687e+00|  8.3958e-09|  7.7777e-01|  5.0000e-02|  5.0000e-01|  5.0000e-01|   -6.027477|   -6.109771|   -6.558216|   -6.665271|   -6.302063|   -4.629174|    2.493602|
|          26|  5.3991e+00|  8.3955e-09|  7.7777e-01|  5.0000e-02|  5.0000e-01|  5.0000e-01|   -6.026338|   -6.108739|   -6.557293|   -6.664286|   -6.300943|   -4.667249|    2.493583|
|          27|  5.4100e+00|  8.3952e-09|  7.7777e-01|  5.0000e-02|  5.0000e-01|  5.0000e-01|   -6.025194|   -6.107690|   -6.556407|   -6.663342|   -6.299824|   -4.213391|    2.493563|
|          28|  5.4224e+00|  8.3949e-09|  7.7777e-01|  5.0000e-02|  5.0000e-01|  5.0000e-01|   -6.024046|   -6.106626|   -6.555558|   -6.662435|   -6.298708|   -4.358709|    2.493543|
|          29|  5.4347e+00|  8.3946e-09|  7.7777e-01|  5.0000e-02|  5.0000e-01|  5.0000e-01|   -6.022896|   -6.105550|   -6.554741|   -6.661562|   -6.297596|   -4.407155|    2.493523|
|          30|  5.4470e+00|  8.3944e-09|  7.7777e-01|  5.0000e-02|  5.0000e-01|  5.0000e-01|   -6.021745|   -6.104464|   -6.553957|   -6.660720|   -6.296491|   -4.443507|    2.493504|
|          31|  5.4606e+00|  8.3941e-09|  7.7777e-01|  5.0000e-02|  5.0000e-01|  5.0000e-01|   -6.020595|   -6.103372|   -6.553202|   -6.659908|   -6.295394|   -4.479456|    2.493484|
|          32|  5.4723e+00|  8.3938e-09|  7.7777e-01|  5.0000e-02|  5.0000e-01|  5.0000e-01|   -6.019448|   -6.102276|   -6.552476|   -6.659125|   -6.294308|   -4.515560|    2.493464|
|          33|  5.4829e+00|  8.3935e-09|  7.7777e-01|  5.0000e-02|  5.0000e-01|  5.0000e-01|   -6.018306|   -6.101179|   -6.551776|   -6.658368|   -6.293235|   -4.551935|    2.493444|
|          34|  5.4921e+00|  8.3932e-09|  7.7777e-01|  5.0000e-02|  5.0000e-01|  5.0000e-01|   -6.017169|   -6.100081|   -6.551101|   -6.657634|   -6.292177|   -4.588607|    2.493425|
|          35|  5.5060e+00|  8.3929e-09|  7.7777e-01|  5.0000e-02|  5.0000e-01|  5.0000e-01|   -6.016039|   -6.098986|   -6.550450|   -6.656923|   -6.291134|   -4.625599|    2.493405|
|          36|  5.5229e+00|  8.3926e-09|  7.7777e-01|  5.0000e-02|  5.0000e-01|  5.0000e-01|   -6.014917|   -6.097896|   -6.549820|   -6.656233|   -6.290109|   -4.662972|    2.493385|
|          37|  5.5276e+00|  8.3924e-09|  7.7777e-01|  5.0000e-02|  5.0000e-01|  5.0000e-01|   -6.013804|   -6.096811|   -6.549212|   -6.655562|   -6.289102|   -4.193418|    2.493365|
|          38|  5.5362e+00|  8.3921e-09|  7.7777e-01|  5.0000e-02|  5.0000e-01|  5.0000e-01|   -6.012703|   -6.095734|   -6.548623|   -6.654910|   -6.288115|   -4.340977|    2.493346|
|          39|  5.5425e+00|  8.3918e-09|  7.7777e-01|  5.0000e-02|  5.0000e-01|  5.0000e-01|   -6.011612|   -6.094664|   -6.548053|   -6.654275|   -6.287148|   -4.389569|    2.493326|
|          40|  5.5509e+00|  8.3915e-09|  7.7777e-01|  5.0000e-02|  5.0000e-01|  5.0000e-01|   -6.010533|   -6.093605|   -6.547500|   -6.653656|   -6.286202|   -4.425747|    2.493306|
|          41|  5.5581e+00|  8.3912e-09|  7.7777e-01|  5.0000e-02|  5.0000e-01|  5.0000e-01|   -6.009467|   -6.092556|   -6.546964|   -6.653052|   -6.285277|   -4.461489|    2.493286|
|          42|  5.5630e+00|  8.3910e-09|  7.7777e-01|  5.0000e-02|  5.0000e-01|  5.0000e-01|   -6.008413|   -6.091517|   -6.546442|   -6.652462|   -6.284374|   -4.497363|    2.493267|
|          43|  5.5693e+00|  8.3907e-09|  7.7777e-01|  5.0000e-02|  5.0000e-01|  5.0000e-01|   -6.007372|   -6.090491|   -6.545934|   -6.651884|   -6.283493|   -4.533482|    2.493247|
|          44|  5.5765e+00|  8.3904e-09|  7.7777e-01|  5.0000e-02|  5.0000e-01|  5.0000e-01|   -6.006346|   -6.089477|   -6.545441|   -6.651320|   -6.282634|   -4.569873|    2.493227|
|          45|  5.5857e+00|  8.3902e-09|  7.7777e-01|  5.0000e-02|  5.0000e-01|  5.0000e-01|   -6.005334|   -6.088475|   -6.544960|   -6.650768|   -6.281799|   -4.606556|    2.493208|
|          46|  5.5971e+00|  8.3899e-09|  7.7777e-01|  5.0000e-02|  5.0000e-01|  5.0000e-01|   -6.004336|   -6.087486|   -6.544492|   -6.650228|   -6.280985|   -4.637264|    2.493188|
|          47|  5.6004e+00|  8.3896e-09|  7.7777e-01|  5.0000e-02|  5.0000e-01|  5.0000e-01|   -6.003352|   -6.086511|   -6.544036|   -6.649698|   -6.280194|   -4.171845|    2.493168|
|          48|  5.6048e+00|  8.3893e-09|  7.7777e-01|  5.0000e-02|  5.0000e-01|  5.0000e-01|   -6.002382|   -6.085548|   -6.543591|   -6.649179|   -6.279425|   -4.319045|    2.493149|
|          49|  5.6107e+00|  8.3891e-09|  7.7777e-01|  5.0000e-02|  5.0000e-01|  5.0000e-01|   -6.001426|   -6.084597|   -6.543157|   -6.648670|   -6.278676|   -4.367419|    2.493129|
|          50|  5.6149e+00|  8.3888e-09|  7.7777e-01|  5.0000e-02|  5.0000e-01|  5.0000e-01|   -6.000484|   -6.083658|   -6.542731|   -6.648168|   -6.277947|   -4.403376|    2.493110|
|          51|  5.6184e+00|  8.3885e-09|  7.7777e-01|  5.0000e-02|  5.0000e-01|  5.0000e-01|   -5.999554|   -6.082732|   -6.542315|   -6.647675|   -6.277238|   -4.438877|    2.493090|
|          52|  5.6209e+00|  8.3883e-09|  7.7777e-01|  5.0000e-02|  5.0000e-01|  5.0000e-01|   -5.998636|   -6.081816|   -6.541908|   -6.647191|   -6.276548|   -4.474492|    2.493070|
|          53|  5.6230e+00|  8.3880e-09|  7.7777e-01|  5.0000e-02|  5.0000e-01|  5.0000e-01|   -5.997732|   -6.080912|   -6.541509|   -6.646715|   -6.275877|   -4.510337|    2.493051|
|          54|  5.6255e+00|  8.3878e-09|  7.7777e-01|  5.0000e-02|  5.0000e-01|  5.0000e-01|   -5.996839|   -6.080017|   -6.541117|   -6.646246|   -6.275223|   -4.546439|    2.493031|
|          55|  5.6306e+00|  8.3875e-09|  7.7777e-01|  5.0000e-02|  5.0000e-01|  5.0000e-01|   -5.995956|   -6.079132|   -6.540733|   -6.645784|   -6.274584|   -4.582824|    2.493012|
|          56|  5.6389e+00|  8.3872e-09|  7.7777e-01|  5.0000e-02|  5.0000e-01|  5.0000e-01|   -5.995084|   -6.078256|   -6.540355|   -6.645329|   -6.273961|   -4.619547|    2.492992|
|          57|  5.6397e+00|  8.3870e-09|  7.7777e-01|  5.0000e-02|  5.0000e-01|  5.0000e-01|   -5.994221|   -6.077387|   -6.539985|   -6.644880|   -6.273351|   -4.152025|    2.492973|
|          58|  5.6416e+00|  8.3867e-09|  7.7777e-01|  5.0000e-02|  5.0000e-01|  5.0000e-01|   -5.993367|   -6.076526|   -6.539621|   -6.644436|   -6.272755|   -4.299076|    2.492953|
|          59|  5.6440e+00|  8.3865e-09|  7.7777e-01|  5.0000e-02|  5.0000e-01|  5.0000e-01|   -5.992520|   -6.075671|   -6.539263|   -6.643998|   -6.272170|   -4.347326|    2.492934|
|          60|  5.6466e+00|  8.3862e-09|  7.7777e-01|  5.0000e-02|  5.0000e-01|  5.0000e-01|   -5.991682|   -6.074821|   -6.538910|   -6.643566|   -6.271596|   -4.383130|    2.492914|
|          61|  5.6489e+00|  8.3860e-09|  7.7777e-01|  5.0000e-02|  5.0000e-01|  5.0000e-01|   -5.990850|   -6.073976|   -6.538564|   -6.643139|   -6.271032|   -4.418469|    2.492895|
|          62|  5.6512e+00|  8.3857e-09|  7.7777e-01|  5.0000e-02|  5.0000e-01|  5.0000e-01|   -5.990024|   -6.073136|   -6.538224|   -6.642716|   -6.270477|   -4.453909|    2.492876|
|          63|  5.6532e+00|  8.3854e-09|  7.7777e-01|  5.0000e-02|  5.0000e-01|  5.0000e-01|   -5.989203|   -6.072298|   -6.537889|   -6.642299|   -6.269930|   -4.489553|    2.492856|
|          64|  5.6550e+00|  8.3852e-09|  7.7777e-01|  5.0000e-02|  5.0000e-01|  5.0000e-01|   -5.988387|   -6.071463|   -6.537559|   -6.641886|   -6.269388|   -4.525422|    2.492837|
|          65|  5.6575e+00|  8.3849e-09|  7.7777e-01|  5.0000e-02|  5.0000e-01|  5.0000e-01|   -5.987574|   -6.070629|   -6.537234|   -6.641478|   -6.268853|   -4.561533|    2.492818|
|          66|  5.6640e+00|  8.3847e-09|  7.7777e-01|  5.0000e-02|  5.0000e-01|  5.0000e-01|   -5.986765|   -6.069796|   -6.536913|   -6.641074|   -6.268322|   -4.597898|    2.492799|
|          67|  5.6640e+00|  8.3845e-09|  7.7777e-01|  5.0000e-02|  5.0000e-01|  5.0000e-01|   -5.985958|   -6.068964|   -6.536598|   -6.640675|   -6.267794|   -4.132916|    2.492779|
|          68|  5.6650e+00|  8.3842e-09|  7.7777e-01|  5.0000e-02|  5.0000e-01|  5.0000e-01|   -5.985153|   -6.068131|   -6.536287|   -6.640280|   -6.267270|   -4.279478|    2.492760|
|          69|  5.6664e+00|  8.3840e-09|  7.7777e-01|  5.0000e-02|  5.0000e-01|  5.0000e-01|   -5.984350|   -6.067298|   -6.535981|   -6.639888|   -6.266748|   -4.327517|    2.492741|
|          70|  5.6673e+00|  8.3837e-09|  7.7777e-01|  5.0000e-02|  5.0000e-01|  5.0000e-01|   -5.983548|   -6.066464|   -6.535679|   -6.639501|   -6.266227|   -4.363122|    2.492722|
|          71|  5.6691e+00|  8.3835e-09|  7.7777e-01|  5.0000e-02|  5.0000e-01|  5.0000e-01|   -5.982747|   -6.065628|   -6.535382|   -6.639117|   -6.265707|   -4.398245|    2.492703|
|          72|  5.6707e+00|  8.3832e-09|  7.7777e-01|  5.0000e-02|  5.0000e-01|  5.0000e-01|   -5.981945|   -6.064789|   -6.535090|   -6.638737|   -6.265187|   -4.433449|    2.492684|
|          73|  5.6716e+00|  8.3830e-09|  7.7777e-01|  5.0000e-02|  5.0000e-01|  5.0000e-01|   -5.981143|   -6.063947|   -6.534803|   -6.638361|   -6.264665|   -4.468843|    2.492665|
|          74|  5.6725e+00|  8.3827e-09|  7.7777e-01|  5.0000e-02|  5.0000e-01|  5.0000e-01|   -5.980341|   -6.063101|   -6.534520|   -6.637988|   -6.264142|   -4.504448|    2.492646|
|          75|  5.6729e+00|  8.3825e-09|  7.7777e-01|  5.0000e-02|  5.0000e-01|  5.0000e-01|   -5.979537|   -6.062252|   -6.534242|   -6.637620|   -6.263617|   -4.540286|    2.492627|
|          76|  5.6779e+00|  8.3823e-09|  7.7777e-01|  5.0000e-02|  5.0000e-01|  5.0000e-01|   -5.978731|   -6.061399|   -6.533969|   -6.637254|   -6.263089|   -4.576361|    2.492608|
|          77|  5.6776e+00|  8.3820e-09|  7.7777e-01|  5.0000e-02|  5.0000e-01|  5.0000e-01|   -5.977924|   -6.060541|   -6.533701|   -6.636893|   -6.262558|   -4.114783|    2.492589|
|          78|  5.6788e+00|  8.3818e-09|  7.7777e-01|  5.0000e-02|  5.0000e-01|  5.0000e-01|   -5.977115|   -6.059680|   -6.533437|   -6.636535|   -6.262025|   -4.260746|    2.492570|
|          79|  5.6804e+00|  8.3816e-09|  7.7777e-01|  5.0000e-02|  5.0000e-01|  5.0000e-01|   -5.976304|   -6.058814|   -6.533178|   -6.636180|   -6.261487|   -4.308586|    2.492551|
|          80|  5.6822e+00|  8.3813e-09|  7.7777e-01|  5.0000e-02|  5.0000e-01|  5.0000e-01|   -5.975490|   -6.057943|   -6.532923|   -6.635828|   -6.260945|   -4.344027|    2.492533|
|          81|  5.6841e+00|  8.3811e-09|  7.7777e-01|  5.0000e-02|  5.0000e-01|  5.0000e-01|   -5.974673|   -6.057067|   -6.532673|   -6.635479|   -6.260398|   -4.378974|    2.492514|
|          82|  5.6861e+00|  8.3809e-09|  7.7777e-01|  5.0000e-02|  5.0000e-01|  5.0000e-01|   -5.973854|   -6.056187|   -6.532426|   -6.635133|   -6.259847|   -4.413986|    2.492495|
|          83|  5.6876e+00|  8.3806e-09|  7.7777e-01|  5.0000e-02|  5.0000e-01|  5.0000e-01|   -5.973031|   -6.055301|   -6.532184|   -6.634790|   -6.259289|   -4.449170|    2.492477|
|          84|  5.6885e+00|  8.3804e-09|  7.7777e-01|  5.0000e-02|  5.0000e-01|  5.0000e-01|   -5.972205|   -6.054409|   -6.531945|   -6.634448|   -6.258726|   -4.484545|    2.492458|
|          85|  5.6897e+00|  8.3802e-09|  7.7777e-01|  5.0000e-02|  5.0000e-01|  5.0000e-01|   -5.971376|   -6.053513|   -6.531711|   -6.634109|   -6.258157|   -4.520126|    2.492440|
|          86|  5.6951e+00|  8.3800e-09|  7.7777e-01|  5.0000e-02|  5.0000e-01|  5.0000e-01|   -5.970544|   -6.052611|   -6.531481|   -6.633773|   -6.257582|   -4.555936|    2.492421|
|          87|  5.6954e+00|  8.3797e-09|  7.7777e-01|  5.0000e-02|  5.0000e-01|  5.0000e-01|   -5.969708|   -6.051704|   -6.531254|   -6.633438|   -6.257002|   -4.097691|    2.492403|
|          88|  5.6961e+00|  8.3795e-09|  7.7777e-01|  5.0000e-02|  5.0000e-01|  5.0000e-01|   -5.968869|   -6.050792|   -6.531032|   -6.633105|   -6.256415|   -4.243065|    2.492384|
|          89|  5.6972e+00|  8.3793e-09|  7.7777e-01|  5.0000e-02|  5.0000e-01|  5.0000e-01|   -5.968027|   -6.049875|   -6.530813|   -6.632774|   -6.255822|   -4.290709|    2.492366|
|          90|  5.6976e+00|  8.3791e-09|  7.7777e-01|  5.0000e-02|  5.0000e-01|  5.0000e-01|   -5.967183|   -6.048954|   -6.530599|   -6.632445|   -6.255223|   -4.325984|    2.492348|
|          91|  5.6989e+00|  8.3788e-09|  7.7777e-01|  5.0000e-02|  5.0000e-01|  5.0000e-01|   -5.966336|   -6.048029|   -6.530389|   -6.632120|   -6.254620|   -4.360752|    2.492330|
|          92|  5.7003e+00|  8.3786e-09|  7.7777e-01|  5.0000e-02|  5.0000e-01|  5.0000e-01|   -5.965487|   -6.047099|   -6.530184|   -6.631796|   -6.254011|   -4.395568|    2.492311|
|          93|  5.7018e+00|  8.3784e-09|  7.7777e-01|  5.0000e-02|  5.0000e-01|  5.0000e-01|   -5.964636|   -6.046165|   -6.529982|   -6.631475|   -6.253397|   -4.430538|    2.492293|
|          94|  5.7028e+00|  8.3782e-09|  7.7777e-01|  5.0000e-02|  5.0000e-01|  5.0000e-01|   -5.963782|   -6.045228|   -6.529784|   -6.631156|   -6.252777|   -4.465682|    2.492275|
|          95|  5.7039e+00|  8.3780e-09|  7.7777e-01|  5.0000e-02|  5.0000e-01|  5.0000e-01|   -5.962926|   -6.044288|   -6.529590|   -6.630839|   -6.252152|   -4.501010|    2.492257|
|          96|  5.7101e+00|  8.3777e-09|  7.7777e-01|  5.0000e-02|  5.0000e-01|  5.0000e-01|   -5.962069|   -6.043344|   -6.529400|   -6.630524|   -6.251522|   -4.536532|    2.492239|
|          97|  5.7118e+00|  8.3775e-09|  7.7777e-01|  5.0000e-02|  5.0000e-01|  5.0000e-01|   -5.961210|   -6.042398|   -6.529213|   -6.630211|   -6.250888|   -4.081509|    2.492221|
|          98|  5.7137e+00|  8.3773e-09|  7.7777e-01|  5.0000e-02|  5.0000e-01|  5.0000e-01|   -5.960349|   -6.041449|   -6.529030|   -6.629900|   -6.250249|   -4.226280|    2.492204|
|          99|  5.7144e+00|  8.3769e-09|  7.7777e-01|  5.0000e-02|  5.0000e-01|  5.0000e-01|   -5.959487|   -6.040498|   -6.528850|   -6.629591|   -6.249605|   -4.273742|    2.492186|
|         100|  5.7151e+00|  8.3765e-09|  7.7777e-01|  5.0000e-02|  5.0000e-01|  5.0000e-01|   -5.958625|   -6.039544|   -6.528673|   -6.629284|   -6.248958|   -4.308880|    2.492168|
|         101|  5.7160e+00|  8.3761e-09|  7.7777e-01|  5.0000e-02|  5.0000e-01|  5.0000e-01|   -5.957761|   -6.038589|   -6.528500|   -6.628980|   -6.248307|   -4.343508|    2.492150|
|         102|  5.7166e+00|  8.3757e-09|  7.7777e-01|  5.0000e-02|  5.0000e-01|  5.0000e-01|   -5.956898|   -6.037633|   -6.528331|   -6.628677|   -6.247652|   -4.378179|    2.492133|
|         103|  5.7174e+00|  8.3753e-09|  7.7777e-01|  5.0000e-02|  5.0000e-01|  5.0000e-01|   -5.956033|   -6.036675|   -6.528164|   -6.628376|   -6.246994|   -4.412997|    2.492115|
|         104|  5.7180e+00|  8.3750e-09|  7.7777e-01|  5.0000e-02|  5.0000e-01|  5.0000e-01|   -5.955169|   -6.035716|   -6.528001|   -6.628077|   -6.246332|   -4.447980|    2.492098|
|         105|  5.7185e+00|  8.3746e-09|  7.7777e-01|  5.0000e-02|  5.0000e-01|  5.0000e-01|   -5.954305|   -6.034757|   -6.527841|   -6.627779|   -6.245668|   -4.483139|    2.492080|
|         106|  5.7222e+00|  8.3742e-09|  7.7777e-01|  5.0000e-02|  5.0000e-01|  5.0000e-01|   -5.953441|   -6.033796|   -6.527685|   -6.627484|   -6.245001|   -4.518479|    2.492063|
|         107|  5.7222e+00|  8.3738e-09|  7.7777e-01|  5.0000e-02|  5.0000e-01|  5.0000e-01|   -5.952577|   -6.032836|   -6.527532|   -6.627191|   -6.244332|   -4.066307|    2.492045|
|         108|  5.7224e+00|  8.3734e-09|  7.7777e-01|  5.0000e-02|  5.0000e-01|  5.0000e-01|   -5.951714|   -6.031875|   -6.527381|   -6.626899|   -6.243660|   -4.210601|    2.492028|
|         109|  5.7227e+00|  8.3730e-09|  7.7777e-01|  5.0000e-02|  5.0000e-01|  5.0000e-01|   -5.950852|   -6.030915|   -6.527233|   -6.626608|   -6.242986|   -4.257938|    2.492011|
|         110|  5.7230e+00|  8.3726e-09|  7.7777e-01|  5.0000e-02|  5.0000e-01|  5.0000e-01|   -5.949990|   -6.029955|   -6.527087|   -6.626318|   -6.242310|   -4.292983|    2.491994|
|         111|  5.7234e+00|  8.3722e-09|  7.7777e-01|  5.0000e-02|  5.0000e-01|  5.0000e-01|   -5.949130|   -6.028995|   -6.526944|   -6.626030|   -6.241632|   -4.327497|    2.491977|
|         112|  5.7234e+00|  8.3718e-09|  7.7777e-01|  5.0000e-02|  5.0000e-01|  5.0000e-01|   -5.948270|   -6.028036|   -6.526804|   -6.625744|   -6.240953|   -4.362026|    2.491959|
|         113|  5.7235e+00|  8.3714e-09|  7.7777e-01|  5.0000e-02|  5.0000e-01|  5.0000e-01|   -5.947412|   -6.027077|   -6.526667|   -6.625458|   -6.240272|   -4.396674|    2.491942|
|         114|  5.7238e+00|  8.3710e-09|  7.7777e-01|  5.0000e-02|  5.0000e-01|  5.0000e-01|   -5.946555|   -6.026120|   -6.526534|   -6.625175|   -6.239590|   -4.431453|    2.491926|
|         115|  5.7239e+00|  8.3706e-09|  7.7777e-01|  5.0000e-02|  5.0000e-01|  5.0000e-01|   -5.945701|   -6.025163|   -6.526404|   -6.624893|   -6.238908|   -4.466373|    2.491909|
|         116|  5.7270e+00|  8.3702e-09|  7.7777e-01|  5.0000e-02|  5.0000e-01|  5.0000e-01|   -5.944848|   -6.024209|   -6.526278|   -6.624612|   -6.238225|   -4.501439|    2.491892|
|         117|  5.7264e+00|  8.3698e-09|  7.7777e-01|  5.0000e-02|  5.0000e-01|  5.0000e-01|   -5.943997|   -6.023256|   -6.526154|   -6.624333|   -6.237541|   -4.051926|    2.491875|
|         118|  5.7269e+00|  8.3694e-09|  7.7777e-01|  5.0000e-02|  5.0000e-01|  5.0000e-01|   -5.943148|   -6.022304|   -6.526034|   -6.624055|   -6.236857|   -4.195701|    2.491858|
|         119|  5.7273e+00|  8.3690e-09|  7.7777e-01|  5.0000e-02|  5.0000e-01|  5.0000e-01|   -5.942301|   -6.021353|   -6.525916|   -6.623779|   -6.236172|   -4.242842|    2.491842|
|         120|  5.7271e+00|  8.3686e-09|  7.7777e-01|  5.0000e-02|  5.0000e-01|  5.0000e-01|   -5.941456|   -6.020405|   -6.525802|   -6.623504|   -6.235487|   -4.277713|    2.491825|
|         121|  5.7272e+00|  8.3682e-09|  7.7777e-01|  5.0000e-02|  5.0000e-01|  5.0000e-01|   -5.940614|   -6.019459|   -6.525690|   -6.623231|   -6.234803|   -4.312052|    2.491809|
|         122|  5.7276e+00|  8.3678e-09|  7.7777e-01|  5.0000e-02|  5.0000e-01|  5.0000e-01|   -5.939775|   -6.018515|   -6.525581|   -6.622959|   -6.234118|   -4.346404|    2.491792|
|         123|  5.7286e+00|  8.3675e-09|  7.7777e-01|  5.0000e-02|  5.0000e-01|  5.0000e-01|   -5.938938|   -6.017573|   -6.525474|   -6.622689|   -6.233434|   -4.380869|    2.491776|
|         124|  5.7293e+00|  8.3670e-09|  7.7777e-01|  5.0000e-02|  5.0000e-01|  5.0000e-01|   -5.938103|   -6.016634|   -6.525371|   -6.622420|   -6.232750|   -4.415463|    2.491760|
|         125|  5.7298e+00|  8.3665e-09|  7.7777e-01|  5.0000e-02|  5.0000e-01|  5.0000e-01|   -5.937271|   -6.015697|   -6.525270|   -6.622151|   -6.232066|   -4.450191|    2.491743|
|         126|  5.7324e+00|  8.3661e-09|  7.7777e-01|  5.0000e-02|  5.0000e-01|  5.0000e-01|   -5.936442|   -6.014762|   -6.525172|   -6.621884|   -6.231383|   -4.485057|    2.491727|
|         127|  5.7322e+00|  8.3656e-09|  7.7777e-01|  5.0000e-02|  5.0000e-01|  5.0000e-01|   -5.935616|   -6.013830|   -6.525076|   -6.621618|   -6.230701|   -4.038420|    2.491711|
|         128|  5.7329e+00|  8.3651e-09|  7.7777e-01|  5.0000e-02|  5.0000e-01|  5.0000e-01|   -5.934793|   -6.012901|   -6.524983|   -6.621353|   -6.230019|   -4.181699|    2.491695|
|         129|  5.7334e+00|  8.3647e-09|  7.7777e-01|  5.0000e-02|  5.0000e-01|  5.0000e-01|   -5.933973|   -6.011975|   -6.524894|   -6.621090|   -6.229338|   -4.228707|    2.491679|
|         130|  5.7337e+00|  8.3642e-09|  7.7777e-01|  5.0000e-02|  5.0000e-01|  5.0000e-01|   -5.933157|   -6.011052|   -6.524807|   -6.620828|   -6.228659|   -4.263483|    2.491663|
|         131|  5.7343e+00|  8.3638e-09|  7.7777e-01|  5.0000e-02|  5.0000e-01|  5.0000e-01|   -5.932344|   -6.010133|   -6.524723|   -6.620568|   -6.227982|   -4.297721|    2.491647|
|         132|  5.7347e+00|  8.3633e-09|  7.7777e-01|  5.0000e-02|  5.0000e-01|  5.0000e-01|   -5.931534|   -6.009217|   -6.524642|   -6.620310|   -6.227306|   -4.331966|    2.491631|
|         133|  5.7353e+00|  8.3629e-09|  7.7777e-01|  5.0000e-02|  5.0000e-01|  5.0000e-01|   -5.930728|   -6.008303|   -6.524563|   -6.620052|   -6.226631|   -4.366318|    2.491616|
|         134|  5.7358e+00|  8.3624e-09|  7.7777e-01|  5.0000e-02|  5.0000e-01|  5.0000e-01|   -5.929925|   -6.007393|   -6.524486|   -6.619795|   -6.225957|   -4.400791|    2.491600|
|         135|  5.7364e+00|  8.3619e-09|  7.7777e-01|  5.0000e-02|  5.0000e-01|  5.0000e-01|   -5.929125|   -6.006486|   -6.524412|   -6.619538|   -6.225283|   -4.435388|    2.491584|
|         136|  5.7385e+00|  8.3615e-09|  7.7777e-01|  5.0000e-02|  5.0000e-01|  5.0000e-01|   -5.928328|   -6.005582|   -6.524340|   -6.619283|   -6.224612|   -4.470103|    2.491569|
|         137|  5.7414e+00|  8.3610e-09|  7.7777e-01|  5.0000e-02|  5.0000e-01|  5.0000e-01|   -5.927534|   -6.004681|   -6.524271|   -6.619028|   -6.223941|   -4.498356|    2.491553|
|         138|  5.7415e+00|  8.3606e-09|  7.7777e-01|  5.0000e-02|  5.0000e-01|  5.0000e-01|   -5.926744|   -6.003784|   -6.524204|   -6.618773|   -6.223272|   -4.028518|    2.491538|
|         139|  5.7422e+00|  8.3601e-09|  7.7777e-01|  5.0000e-02|  5.0000e-01|  5.0000e-01|   -5.925957|   -6.002889|   -6.524139|   -6.618519|   -6.222604|   -4.175661|    2.491523|
|         140|  5.7430e+00|  8.3597e-09|  7.7777e-01|  5.0000e-02|  5.0000e-01|  5.0000e-01|   -5.925174|   -6.001999|   -6.524077|   -6.618266|   -6.221938|   -4.223114|    2.491508|
|         141|  5.7433e+00|  8.3593e-09|  7.7777e-01|  5.0000e-02|  5.0000e-01|  5.0000e-01|   -5.924394|   -6.001112|   -6.524017|   -6.618014|   -6.221274|   -4.257864|    2.491492|
|         142|  5.7439e+00|  8.3588e-09|  7.7777e-01|  5.0000e-02|  5.0000e-01|  5.0000e-01|   -5.923618|   -6.000228|   -6.523960|   -6.617763|   -6.220611|   -4.292047|    2.491477|
|         143|  5.7442e+00|  8.3584e-09|  7.7777e-01|  5.0000e-02|  5.0000e-01|  5.0000e-01|   -5.922846|   -5.999349|   -6.523906|   -6.617512|   -6.219951|   -4.326230|    2.491462|
|         144|  5.7447e+00|  8.3579e-09|  7.7777e-01|  5.0000e-02|  5.0000e-01|  5.0000e-01|   -5.922079|   -5.998474|   -6.523854|   -6.617263|   -6.219293|   -4.360517|    2.491447|
|         145|  5.7454e+00|  8.3575e-09|  7.7777e-01|  5.0000e-02|  5.0000e-01|  5.0000e-01|   -5.921316|   -5.997603|   -6.523804|   -6.617014|   -6.218638|   -4.394921|    2.491432|
|         146|  5.7457e+00|  8.3571e-09|  7.7777e-01|  5.0000e-02|  5.0000e-01|  5.0000e-01|   -5.920555|   -5.996736|   -6.523757|   -6.616766|   -6.217984|   -4.429450|    2.491418|
|         147|  5.7484e+00|  8.3566e-09|  7.7777e-01|  5.0000e-02|  5.0000e-01|  5.0000e-01|   -5.919798|   -5.995872|   -6.523710|   -6.616516|   -6.217331|   -4.464107|    2.491403|
|         148|  5.7483e+00|  8.3562e-09|  7.7777e-01|  5.0000e-02|  5.0000e-01|  5.0000e-01|   -5.919045|   -5.995012|   -6.523666|   -6.616267|   -6.216680|   -4.013878|    2.491388|
|         149|  5.7484e+00|  8.3558e-09|  7.7777e-01|  5.0000e-02|  5.0000e-01|  5.0000e-01|   -5.918294|   -5.994156|   -6.523623|   -6.616017|   -6.216030|   -4.157672|    2.491374|
|         150|  5.7487e+00|  8.3553e-09|  7.7777e-01|  5.0000e-02|  5.0000e-01|  5.0000e-01|   -5.917547|   -5.993303|   -6.523582|   -6.615767|   -6.215382|   -4.204660|    2.491359|
+-----------------------------------------------------------------------+
|        File Writing Summary       |              Filename             |
+-----------------------------------------------------------------------+
|SU2 binary restart                 |restart_flow.dat                   |
|Paraview                           |flow.vtu                           |
|Paraview surface                   |surface_flow.vtu                   |
+-----------------------------------------------------------------------+
+-------------------------------------------------------------------------------------------------------------------------------------------------------------------------------------+
|  Inner_Iter|   Time(sec)|      Min DT|      Max DT|     Min CFL|     Max CFL|     Avg CFL|    rms[Rho]|   rms[RhoU]|   rms[RhoV]|   rms[RhoW]|   rms[RhoE]|     rms[nu]|          CD|
+-------------------------------------------------------------------------------------------------------------------------------------------------------------------------------------+
|         151|  5.9108e+00|  8.3549e-09|  7.7777e-01|  5.0000e-02|  5.0000e-01|  5.0000e-01|   -5.916804|   -5.992454|   -6.523542|   -6.615518|   -6.214736|   -4.239323|    2.491345|
|         152|  5.9152e+00|  8.3545e-09|  7.7777e-01|  5.0000e-02|  5.0000e-01|  5.0000e-01|   -5.916063|   -5.991609|   -6.523504|   -6.615268|   -6.214091|   -4.273433|    2.491330|
|         153|  5.9169e+00|  8.3540e-09|  7.7777e-01|  5.0000e-02|  5.0000e-01|  5.0000e-01|   -5.915327|   -5.990767|   -6.523468|   -6.615019|   -6.213448|   -4.307538|    2.491316|
|         154|  5.9175e+00|  8.3536e-09|  7.7777e-01|  5.0000e-02|  5.0000e-01|  5.0000e-01|   -5.914594|   -5.989930|   -6.523434|   -6.614769|   -6.212808|   -4.341739|    2.491302|
|         155|  5.9179e+00|  8.3532e-09|  7.7777e-01|  5.0000e-02|  5.0000e-01|  5.0000e-01|   -5.913865|   -5.989096|   -6.523402|   -6.614520|   -6.212169|   -4.376047|    2.491288|
|         156|  5.9184e+00|  8.3528e-09|  7.7777e-01|  5.0000e-02|  5.0000e-01|  5.0000e-01|   -5.913139|   -5.988266|   -6.523370|   -6.614271|   -6.211532|   -4.410470|    2.491274|
|         157|  5.9193e+00|  8.3523e-09|  7.7777e-01|  5.0000e-02|  5.0000e-01|  5.0000e-01|   -5.912417|   -5.987441|   -6.523341|   -6.614021|   -6.210898|   -4.445009|    2.491260|
|         158|  5.9207e+00|  8.3519e-09|  7.7777e-01|  5.0000e-02|  5.0000e-01|  5.0000e-01|   -5.911698|   -5.986619|   -6.523312|   -6.613771|   -6.210265|   -4.473125|    2.491246|
|         159|  5.9203e+00|  8.3515e-09|  7.7777e-01|  5.0000e-02|  5.0000e-01|  5.0000e-01|   -5.910983|   -5.985801|   -6.523286|   -6.613521|   -6.209634|   -4.004749|    2.491232|
|         160|  5.9198e+00|  8.3511e-09|  7.7777e-01|  5.0000e-02|  5.0000e-01|  5.0000e-01|   -5.910271|   -5.984987|   -6.523261|   -6.613271|   -6.209005|   -4.151646|    2.491218|
|         161|  5.9195e+00|  8.3507e-09|  7.7777e-01|  5.0000e-02|  5.0000e-01|  5.0000e-01|   -5.909563|   -5.984178|   -6.523237|   -6.613020|   -6.208379|   -4.198983|    2.491205|
|         162|  5.9192e+00|  8.3503e-09|  7.7777e-01|  5.0000e-02|  5.0000e-01|  5.0000e-01|   -5.908859|   -5.983372|   -6.523215|   -6.612769|   -6.207754|   -4.233611|    2.491191|
|         163|  5.9189e+00|  8.3498e-09|  7.7777e-01|  5.0000e-02|  5.0000e-01|  5.0000e-01|   -5.908158|   -5.982570|   -6.523194|   -6.612518|   -6.207132|   -4.267659|    2.491178|
|         164|  5.9182e+00|  8.3494e-09|  7.7777e-01|  5.0000e-02|  5.0000e-01|  5.0000e-01|   -5.907461|   -5.981772|   -6.523175|   -6.612267|   -6.206511|   -4.301691|    2.491164|
|         165|  5.9176e+00|  8.3490e-09|  7.7777e-01|  5.0000e-02|  5.0000e-01|  5.0000e-01|   -5.906767|   -5.980978|   -6.523157|   -6.612015|   -6.205893|   -4.335808|    2.491151|
|         166|  5.9173e+00|  8.3486e-09|  7.7777e-01|  5.0000e-02|  5.0000e-01|  5.0000e-01|   -5.906077|   -5.980189|   -6.523140|   -6.611763|   -6.205278|   -4.370026|    2.491138|
|         167|  5.9167e+00|  8.3482e-09|  7.7777e-01|  5.0000e-02|  5.0000e-01|  5.0000e-01|   -5.905391|   -5.979403|   -6.523125|   -6.611511|   -6.204664|   -4.404347|    2.491125|
|         168|  5.9175e+00|  8.3478e-09|  7.7777e-01|  5.0000e-02|  5.0000e-01|  5.0000e-01|   -5.904708|   -5.978622|   -6.523111|   -6.611258|   -6.204053|   -4.438775|    2.491112|
|         169|  5.9166e+00|  8.3474e-09|  7.7777e-01|  5.0000e-02|  5.0000e-01|  5.0000e-01|   -5.904030|   -5.977845|   -6.523099|   -6.611006|   -6.203444|   -3.991303|    2.491099|
|         170|  5.9160e+00|  8.3470e-09|  7.7777e-01|  5.0000e-02|  5.0000e-01|  5.0000e-01|   -5.903355|   -5.977071|   -6.523088|   -6.610754|   -6.202838|   -4.134610|    2.491086|
|         171|  5.9156e+00|  8.3466e-09|  7.7777e-01|  5.0000e-02|  5.0000e-01|  5.0000e-01|   -5.902683|   -5.976303|   -6.523078|   -6.610501|   -6.202233|   -4.181435|    2.491073|
|         172|  5.9154e+00|  8.3462e-09|  7.7777e-01|  5.0000e-02|  5.0000e-01|  5.0000e-01|   -5.902015|   -5.975538|   -6.523069|   -6.610248|   -6.201632|   -4.215958|    2.491060|
|         173|  5.9151e+00|  8.3458e-09|  7.7777e-01|  5.0000e-02|  5.0000e-01|  5.0000e-01|   -5.901351|   -5.974777|   -6.523061|   -6.609996|   -6.201032|   -4.249915|    2.491048|
|         174|  5.9144e+00|  8.3454e-09|  7.7777e-01|  5.0000e-02|  5.0000e-01|  5.0000e-01|   -5.900692|   -5.974021|   -6.523055|   -6.609744|   -6.200436|   -4.283852|    2.491035|
|         175|  5.9139e+00|  8.3450e-09|  7.7777e-01|  5.0000e-02|  5.0000e-01|  5.0000e-01|   -5.900036|   -5.973269|   -6.523050|   -6.609492|   -6.199842|   -4.317867|    2.491023|
|         176|  5.9137e+00|  8.3446e-09|  7.7777e-01|  5.0000e-02|  5.0000e-01|  5.0000e-01|   -5.899384|   -5.972522|   -6.523046|   -6.609239|   -6.199251|   -4.351972|    2.491011|
|         177|  5.9132e+00|  8.3442e-09|  7.7777e-01|  5.0000e-02|  5.0000e-01|  5.0000e-01|   -5.898735|   -5.971779|   -6.523043|   -6.608986|   -6.198662|   -4.386171|    2.490998|
|         178|  5.9135e+00|  8.3439e-09|  7.7777e-01|  5.0000e-02|  5.0000e-01|  5.0000e-01|   -5.898091|   -5.971040|   -6.523042|   -6.608734|   -6.198076|   -4.420467|    2.490986|
|         179|  5.9145e+00|  8.3435e-09|  7.7777e-01|  5.0000e-02|  5.0000e-01|  5.0000e-01|   -5.897451|   -5.970306|   -6.523041|   -6.608481|   -6.197492|   -4.448462|    2.490974|
|         180|  5.9138e+00|  8.3431e-09|  7.7777e-01|  5.0000e-02|  5.0000e-01|  5.0000e-01|   -5.896815|   -5.969576|   -6.523041|   -6.608229|   -6.196912|   -3.983496|    2.490962|
|         181|  5.9129e+00|  8.3427e-09|  7.7777e-01|  5.0000e-02|  5.0000e-01|  5.0000e-01|   -5.896183|   -5.968851|   -6.523042|   -6.607977|   -6.196334|   -4.129801|    2.490951|
|         182|  5.9121e+00|  8.3423e-09|  7.7777e-01|  5.0000e-02|  5.0000e-01|  5.0000e-01|   -5.895555|   -5.968131|   -6.523044|   -6.607725|   -6.195760|   -4.176955|    2.490939|
|         183|  5.9112e+00|  8.3419e-09|  7.7777e-01|  5.0000e-02|  5.0000e-01|  5.0000e-01|   -5.894931|   -5.967415|   -6.523047|   -6.607472|   -6.195188|   -4.211437|    2.490927|
|         184|  5.9107e+00|  8.3416e-09|  7.7777e-01|  5.0000e-02|  5.0000e-01|  5.0000e-01|   -5.894312|   -5.966705|   -6.523051|   -6.607218|   -6.194619|   -4.245329|    2.490916|
|         185|  5.9100e+00|  8.3412e-09|  7.7777e-01|  5.0000e-02|  5.0000e-01|  5.0000e-01|   -5.893697|   -5.965999|   -6.523056|   -6.606965|   -6.194054|   -4.279191|    2.490904|
|         186|  5.9094e+00|  8.3408e-09|  7.7777e-01|  5.0000e-02|  5.0000e-01|  5.0000e-01|   -5.893086|   -5.965297|   -6.523063|   -6.606710|   -6.193491|   -4.313125|    2.490893|
|         187|  5.9088e+00|  8.3404e-09|  7.7777e-01|  5.0000e-02|  5.0000e-01|  5.0000e-01|   -5.892480|   -5.964601|   -6.523070|   -6.606456|   -6.192932|   -4.347144|    2.490882|
|         188|  5.9083e+00|  8.3401e-09|  7.7777e-01|  5.0000e-02|  5.0000e-01|  5.0000e-01|   -5.891878|   -5.963910|   -6.523078|   -6.606202|   -6.192376|   -4.381251|    2.490870|
|         189|  5.9088e+00|  8.3397e-09|  7.7777e-01|  5.0000e-02|  5.0000e-01|  5.0000e-01|   -5.891280|   -5.963224|   -6.523088|   -6.605948|   -6.191824|   -4.415448|    2.490859|
|         190|  5.9095e+00|  8.3393e-09|  7.7777e-01|  5.0000e-02|  5.0000e-01|  5.0000e-01|   -5.890687|   -5.962543|   -6.523099|   -6.605693|   -6.191275|   -4.443133|    2.490848|
|         191|  5.9088e+00|  8.3390e-09|  7.7777e-01|  5.0000e-02|  5.0000e-01|  5.0000e-01|   -5.890099|   -5.961867|   -6.523111|   -6.605439|   -6.190729|   -3.974185|    2.490838|
|         192|  5.9082e+00|  8.3386e-09|  7.7777e-01|  5.0000e-02|  5.0000e-01|  5.0000e-01|   -5.889515|   -5.961196|   -6.523124|   -6.605184|   -6.190187|   -4.121051|    2.490827|
|         193|  5.9077e+00|  8.3382e-09|  7.7777e-01|  5.0000e-02|  5.0000e-01|  5.0000e-01|   -5.888936|   -5.960531|   -6.523137|   -6.604929|   -6.189648|   -4.168226|    2.490816|
|         194|  5.9070e+00|  8.3379e-09|  7.7777e-01|  5.0000e-02|  5.0000e-01|  5.0000e-01|   -5.888361|   -5.959871|   -6.523151|   -6.604674|   -6.189113|   -4.202648|    2.490806|
|         195|  5.9063e+00|  8.3375e-09|  7.7777e-01|  5.0000e-02|  5.0000e-01|  5.0000e-01|   -5.887791|   -5.959216|   -6.523167|   -6.604420|   -6.188581|   -4.236471|    2.490795|
|         196|  5.9056e+00|  8.3371e-09|  7.7777e-01|  5.0000e-02|  5.0000e-01|  5.0000e-01|   -5.887226|   -5.958566|   -6.523183|   -6.604166|   -6.188053|   -4.270259|    2.490785|
|         197|  5.9053e+00|  8.3368e-09|  7.7777e-01|  5.0000e-02|  5.0000e-01|  5.0000e-01|   -5.886666|   -5.957922|   -6.523201|   -6.603912|   -6.187530|   -4.304112|    2.490775|
|         198|  5.9049e+00|  8.3364e-09|  7.7777e-01|  5.0000e-02|  5.0000e-01|  5.0000e-01|   -5.886111|   -5.957284|   -6.523220|   -6.603659|   -6.187010|   -4.338044|    2.490765|
|         199|  5.9043e+00|  8.3361e-09|  7.7777e-01|  5.0000e-02|  5.0000e-01|  5.0000e-01|   -5.885562|   -5.956651|   -6.523241|   -6.603407|   -6.186495|   -4.372058|    2.490755|
|         200|  5.9053e+00|  8.3357e-09|  7.7777e-01|  5.0000e-02|  5.0000e-01|  5.0000e-01|   -5.885017|   -5.956024|   -6.523262|   -6.603156|   -6.185983|   -4.406155|    2.490745|
|         201|  5.9047e+00|  8.3354e-09|  7.7777e-01|  5.0000e-02|  5.0000e-01|  5.0000e-01|   -5.884477|   -5.955402|   -6.523285|   -6.602906|   -6.185476|   -3.961968|    2.490735|
|         202|  5.9045e+00|  8.3350e-09|  7.7777e-01|  5.0000e-02|  5.0000e-01|  5.0000e-01|   -5.883943|   -5.954786|   -6.523308|   -6.602656|   -6.184973|   -4.104658|    2.490725|
|         203|  5.9040e+00|  8.3347e-09|  7.7777e-01|  5.0000e-02|  5.0000e-01|  5.0000e-01|   -5.883413|   -5.954176|   -6.523332|   -6.602407|   -6.184473|   -4.151265|    2.490716|
|         204|  5.9037e+00|  8.3343e-09|  7.7777e-01|  5.0000e-02|  5.0000e-01|  5.0000e-01|   -5.882889|   -5.953571|   -6.523358|   -6.602158|   -6.183979|   -4.185601|    2.490706|
|         205|  5.9035e+00|  8.3340e-09|  7.7777e-01|  5.0000e-02|  5.0000e-01|  5.0000e-01|   -5.882370|   -5.952972|   -6.523384|   -6.601910|   -6.183488|   -4.219361|    2.490697|
|         206|  5.9032e+00|  8.3336e-09|  7.7777e-01|  5.0000e-02|  5.0000e-01|  5.0000e-01|   -5.881856|   -5.952379|   -6.523412|   -6.601662|   -6.183001|   -4.253083|    2.490688|
|         207|  5.9029e+00|  8.3333e-09|  7.7777e-01|  5.0000e-02|  5.0000e-01|  5.0000e-01|   -5.881347|   -5.951792|   -6.523441|   -6.601415|   -6.182519|   -4.286868|    2.490678|
|         208|  5.9025e+00|  8.3330e-09|  7.7777e-01|  5.0000e-02|  5.0000e-01|  5.0000e-01|   -5.880844|   -5.951210|   -6.523471|   -6.601168|   -6.182040|   -4.320725|    2.490669|
|         209|  5.9023e+00|  8.3326e-09|  7.7777e-01|  5.0000e-02|  5.0000e-01|  5.0000e-01|   -5.880346|   -5.950634|   -6.523502|   -6.600921|   -6.181566|   -4.354659|    2.490660|
|         210|  5.9031e+00|  8.3323e-09|  7.7777e-01|  5.0000e-02|  5.0000e-01|  5.0000e-01|   -5.879853|   -5.950064|   -6.523535|   -6.600676|   -6.181097|   -4.388668|    2.490652|
|         211|  5.9041e+00|  8.3319e-09|  7.7777e-01|  5.0000e-02|  5.0000e-01|  5.0000e-01|   -5.879366|   -5.949500|   -6.523569|   -6.600431|   -6.180632|   -4.416533|    2.490643|
|         212|  5.9037e+00|  8.3316e-09|  7.7777e-01|  5.0000e-02|  5.0000e-01|  5.0000e-01|   -5.878884|   -5.948942|   -6.523603|   -6.600187|   -6.180171|   -3.955868|    2.490634|
|         213|  5.9034e+00|  8.3313e-09|  7.7777e-01|  5.0000e-02|  5.0000e-01|  5.0000e-01|   -5.878407|   -5.948389|   -6.523640|   -6.599943|   -6.179715|   -4.101435|    2.490626|
|         214|  5.9030e+00|  8.3310e-09|  7.7777e-01|  5.0000e-02|  5.0000e-01|  5.0000e-01|   -5.877936|   -5.947843|   -6.523677|   -6.599701|   -6.179263|   -4.148373|    2.490617|
|         215|  5.9028e+00|  8.3306e-09|  7.7777e-01|  5.0000e-02|  5.0000e-01|  5.0000e-01|   -5.877470|   -5.947302|   -6.523715|   -6.599460|   -6.178815|   -4.182692|    2.490609|
|         216|  5.9028e+00|  8.3303e-09|  7.7777e-01|  5.0000e-02|  5.0000e-01|  5.0000e-01|   -5.877010|   -5.946767|   -6.523754|   -6.599219|   -6.178372|   -4.216411|    2.490601|
|         217|  5.9029e+00|  8.3300e-09|  7.7777e-01|  5.0000e-02|  5.0000e-01|  5.0000e-01|   -5.876555|   -5.946238|   -6.523795|   -6.598980|   -6.177933|   -4.250088|    2.490593|
|         218|  5.9026e+00|  8.3296e-09|  7.7777e-01|  5.0000e-02|  5.0000e-01|  5.0000e-01|   -5.876106|   -5.945716|   -6.523837|   -6.598743|   -6.177500|   -4.283822|    2.490585|
|         219|  5.9020e+00|  8.3293e-09|  7.7777e-01|  5.0000e-02|  5.0000e-01|  5.0000e-01|   -5.875663|   -5.945199|   -6.523880|   -6.598506|   -6.177071|   -4.317626|    2.490577|
|         220|  5.9016e+00|  8.3290e-09|  7.7777e-01|  5.0000e-02|  5.0000e-01|  5.0000e-01|   -5.875226|   -5.944689|   -6.523925|   -6.598271|   -6.176647|   -4.351502|    2.490569|
|         221|  5.9023e+00|  8.3287e-09|  7.7777e-01|  5.0000e-02|  5.0000e-01|  5.0000e-01|   -5.874794|   -5.944185|   -6.523972|   -6.598037|   -6.176228|   -4.385450|    2.490561|
|         222|  5.9030e+00|  8.3284e-09|  7.7777e-01|  5.0000e-02|  5.0000e-01|  5.0000e-01|   -5.874368|   -5.943687|   -6.524020|   -6.597806|   -6.175814|   -4.413048|    2.490554|
|         223|  5.9023e+00|  8.3281e-09|  7.7777e-01|  5.0000e-02|  5.0000e-01|  5.0000e-01|   -5.873948|   -5.943195|   -6.524069|   -6.597575|   -6.175404|   -3.948321|    2.490546|
|         224|  5.9017e+00|  8.3277e-09|  7.7777e-01|  5.0000e-02|  5.0000e-01|  5.0000e-01|   -5.873534|   -5.942709|   -6.524120|   -6.597347|   -6.174999|   -4.094483|    2.490539|
|         225|  5.9013e+00|  8.3273e-09|  7.7777e-01|  5.0000e-02|  5.0000e-01|  5.0000e-01|   -5.873126|   -5.942229|   -6.524172|   -6.597121|   -6.174599|   -4.141468|    2.490532|
|         226|  5.9011e+00|  8.3269e-09|  7.7777e-01|  5.0000e-02|  5.0000e-01|  5.0000e-01|   -5.872723|   -5.941756|   -6.524225|   -6.596896|   -6.174203|   -4.175751|    2.490525|
|         227|  5.9006e+00|  8.3265e-09|  7.7777e-01|  5.0000e-02|  5.0000e-01|  5.0000e-01|   -5.872326|   -5.941288|   -6.524280|   -6.596672|   -6.173813|   -4.209428|    2.490518|
|         228|  5.8999e+00|  8.3261e-09|  7.7777e-01|  5.0000e-02|  5.0000e-01|  5.0000e-01|   -5.871935|   -5.940827|   -6.524337|   -6.596451|   -6.173427|   -4.243059|    2.490511|
|         229|  5.8998e+00|  8.3257e-09|  7.7777e-01|  5.0000e-02|  5.0000e-01|  5.0000e-01|   -5.871550|   -5.940372|   -6.524395|   -6.596232|   -6.173046|   -4.276745|    2.490504|
|         230|  5.8997e+00|  8.3253e-09|  7.7777e-01|  5.0000e-02|  5.0000e-01|  5.0000e-01|   -5.871171|   -5.939923|   -6.524455|   -6.596014|   -6.172670|   -4.310496|    2.490497|
|         231|  5.8995e+00|  8.3249e-09|  7.7777e-01|  5.0000e-02|  5.0000e-01|  5.0000e-01|   -5.870798|   -5.939480|   -6.524515|   -6.595798|   -6.172299|   -4.344315|    2.490490|
|         232|  5.8998e+00|  8.3245e-09|  7.7777e-01|  5.0000e-02|  5.0000e-01|  5.0000e-01|   -5.870430|   -5.939043|   -6.524577|   -6.595584|   -6.171932|   -4.378201|    2.490484|
|         233|  5.9005e+00|  8.3242e-09|  7.7777e-01|  5.0000e-02|  5.0000e-01|  5.0000e-01|   -5.870068|   -5.938612|   -6.524641|   -6.595372|   -6.171570|   -4.405713|    2.490477|
|         234|  5.9001e+00|  8.3238e-09|  7.7777e-01|  5.0000e-02|  5.0000e-01|  5.0000e-01|   -5.869712|   -5.938187|   -6.524705|   -6.595162|   -6.171213|   -3.940764|    2.490471|
|         235|  5.8997e+00|  8.3234e-09|  7.7777e-01|  5.0000e-02|  5.0000e-01|  5.0000e-01|   -5.869362|   -5.937769|   -6.524772|   -6.594954|   -6.170860|   -4.086939|    2.490465|
|         236|  5.8994e+00|  8.3230e-09|  7.7777e-01|  5.0000e-02|  5.0000e-01|  5.0000e-01|   -5.869017|   -5.937356|   -6.524839|   -6.594748|   -6.170513|   -4.133894|    2.490459|
|         237|  5.8991e+00|  8.3226e-09|  7.7777e-01|  5.0000e-02|  5.0000e-01|  5.0000e-01|   -5.868679|   -5.936950|   -6.524908|   -6.594545|   -6.170170|   -4.168136|    2.490453|
|         238|  5.8987e+00|  8.3222e-09|  7.7777e-01|  5.0000e-02|  5.0000e-01|  5.0000e-01|   -5.868347|   -5.936550|   -6.524979|   -6.594345|   -6.169832|   -4.201766|    2.490447|
|         239|  5.8985e+00|  8.3218e-09|  7.7777e-01|  5.0000e-02|  5.0000e-01|  5.0000e-01|   -5.868020|   -5.936156|   -6.525051|   -6.594146|   -6.169499|   -4.235344|    2.490441|
|         240|  5.8981e+00|  8.3214e-09|  7.7777e-01|  5.0000e-02|  5.0000e-01|  5.0000e-01|   -5.867700|   -5.935768|   -6.525125|   -6.593951|   -6.169171|   -4.268971|    2.490435|
|         241|  5.8978e+00|  8.3210e-09|  7.7777e-01|  5.0000e-02|  5.0000e-01|  5.0000e-01|   -5.867385|   -5.935386|   -6.525200|   -6.593757|   -6.168848|   -4.302659|    2.490429|
|         242|  5.8978e+00|  8.3206e-09|  7.7777e-01|  5.0000e-02|  5.0000e-01|  5.0000e-01|   -5.867077|   -5.935011|   -6.525277|   -6.593567|   -6.168530|   -4.336408|    2.490424|
|         243|  5.8985e+00|  8.3203e-09|  7.7777e-01|  5.0000e-02|  5.0000e-01|  5.0000e-01|   -5.866774|   -5.934641|   -6.525356|   -6.593379|   -6.168216|   -4.370220|    2.490418|
|         244|  5.8993e+00|  8.3199e-09|  7.7777e-01|  5.0000e-02|  5.0000e-01|  5.0000e-01|   -5.866477|   -5.934278|   -6.525436|   -6.593194|   -6.167907|   -4.397683|    2.490413|
|         245|  5.8989e+00|  8.3195e-09|  7.7777e-01|  5.0000e-02|  5.0000e-01|  5.0000e-01|   -5.866187|   -5.933920|   -6.525517|   -6.593011|   -6.167604|   -3.933535|    2.490407|
|         246|  5.8987e+00|  8.3191e-09|  7.7777e-01|  5.0000e-02|  5.0000e-01|  5.0000e-01|   -5.865902|   -5.933569|   -6.525601|   -6.592832|   -6.167305|   -4.079566|    2.490402|
|         247|  5.8984e+00|  8.3187e-09|  7.7777e-01|  5.0000e-02|  5.0000e-01|  5.0000e-01|   -5.865624|   -5.933224|   -6.525686|   -6.592656|   -6.167011|   -4.126474|    2.490397|
|         248|  5.8983e+00|  8.3183e-09|  7.7777e-01|  5.0000e-02|  5.0000e-01|  5.0000e-01|   -5.865351|   -5.932885|   -6.525773|   -6.592483|   -6.166723|   -4.160678|    2.490392|
|         249|  5.8981e+00|  8.3179e-09|  7.7777e-01|  5.0000e-02|  5.0000e-01|  5.0000e-01|   -5.865085|   -5.932552|   -6.525862|   -6.592314|   -6.166439|   -4.194269|    2.490387|
|         250|  5.8978e+00|  8.3175e-09|  7.7777e-01|  5.0000e-02|  5.0000e-01|  5.0000e-01|   -5.864825|   -5.932225|   -6.525952|   -6.592148|   -6.166160|   -4.227806|    2.490382|
|         251|  5.8980e+00|  8.3172e-09|  7.7777e-01|  5.0000e-02|  5.0000e-01|  5.0000e-01|   -5.864570|   -5.931904|   -6.526043|   -6.591985|   -6.165885|   -4.261390|    2.490378|
|         252|  5.8978e+00|  8.3168e-09|  7.7777e-01|  5.0000e-02|  5.0000e-01|  5.0000e-01|   -5.864322|   -5.931589|   -6.526136|   -6.591825|   -6.165616|   -4.295032|    2.490373|
|         253|  5.8975e+00|  8.3164e-09|  7.7777e-01|  5.0000e-02|  5.0000e-01|  5.0000e-01|   -5.864079|   -5.931280|   -6.526230|   -6.591668|   -6.165351|   -4.328733|    2.490368|
|         254|  5.8982e+00|  8.3160e-09|  7.7777e-01|  5.0000e-02|  5.0000e-01|  5.0000e-01|   -5.863842|   -5.930977|   -6.526326|   -6.591514|   -6.165091|   -4.362492|    2.490364|
|         255|  5.8990e+00|  8.3156e-09|  7.7777e-01|  5.0000e-02|  5.0000e-01|  5.0000e-01|   -5.863611|   -5.930679|   -6.526421|   -6.591362|   -6.164834|   -4.389942|    2.490359|
|         256|  5.8986e+00|  8.3152e-09|  7.7777e-01|  5.0000e-02|  5.0000e-01|  5.0000e-01|   -5.863385|   -5.930387|   -6.526519|   -6.591214|   -6.164583|   -3.926767|    2.490355|
|         257|  5.8983e+00|  8.3148e-09|  7.7777e-01|  5.0000e-02|  5.0000e-01|  5.0000e-01|   -5.863166|   -5.930100|   -6.526618|   -6.591069|   -6.164336|   -4.072643|    2.490351|
|         258|  5.8981e+00|  8.3144e-09|  7.7777e-01|  5.0000e-02|  5.0000e-01|  5.0000e-01|   -5.862952|   -5.929819|   -6.526719|   -6.590927|   -6.164093|   -4.119512|    2.490347|
|         259|  5.8980e+00|  8.3141e-09|  7.7777e-01|  5.0000e-02|  5.0000e-01|  5.0000e-01|   -5.862744|   -5.929545|   -6.526822|   -6.590789|   -6.163856|   -4.153687|    2.490343|
|         260|  5.8976e+00|  8.3137e-09|  7.7777e-01|  5.0000e-02|  5.0000e-01|  5.0000e-01|   -5.862543|   -5.929276|   -6.526927|   -6.590654|   -6.163624|   -4.187248|    2.490339|
|         261|  5.8976e+00|  8.3133e-09|  7.7777e-01|  5.0000e-02|  5.0000e-01|  5.0000e-01|   -5.862347|   -5.929014|   -6.527034|   -6.590524|   -6.163396|   -4.220753|    2.490335|
|         262|  5.8974e+00|  8.3129e-09|  7.7777e-01|  5.0000e-02|  5.0000e-01|  5.0000e-01|   -5.862158|   -5.928758|   -6.527143|   -6.590397|   -6.163174|   -4.254302|    2.490331|
|         263|  5.8974e+00|  8.3125e-09|  7.7777e-01|  5.0000e-02|  5.0000e-01|  5.0000e-01|   -5.861975|   -5.928507|   -6.527254|   -6.590273|   -6.162956|   -4.287906|    2.490327|
|         264|  5.8972e+00|  8.3121e-09|  7.7777e-01|  5.0000e-02|  5.0000e-01|  5.0000e-01|   -5.861798|   -5.928263|   -6.527367|   -6.590153|   -6.162743|   -4.321567|    2.490323|
|         265|  5.8977e+00|  8.3117e-09|  7.7777e-01|  5.0000e-02|  5.0000e-01|  5.0000e-01|   -5.861627|   -5.928024|   -6.527481|   -6.590037|   -6.162535|   -4.355283|    2.490320|
|         266|  5.8983e+00|  8.3113e-09|  7.7777e-01|  5.0000e-02|  5.0000e-01|  5.0000e-01|   -5.861462|   -5.927792|   -6.527598|   -6.589925|   -6.162332|   -4.382724|    2.490316|
|         267|  5.8978e+00|  8.3110e-09|  7.7777e-01|  5.0000e-02|  5.0000e-01|  5.0000e-01|   -5.861303|   -5.927565|   -6.527716|   -6.589817|   -6.162134|   -3.920468|    2.490313|
|         268|  5.8977e+00|  8.3106e-09|  7.7777e-01|  5.0000e-02|  5.0000e-01|  5.0000e-01|   -5.861150|   -5.927344|   -6.527836|   -6.589713|   -6.161940|   -4.066200|    2.490310|
|         269|  5.8975e+00|  8.3102e-09|  7.7777e-01|  5.0000e-02|  5.0000e-01|  5.0000e-01|   -5.861003|   -5.927129|   -6.527958|   -6.589612|   -6.161751|   -4.113034|    2.490306|
|         270|  5.8973e+00|  8.3098e-09|  7.7777e-01|  5.0000e-02|  5.0000e-01|  5.0000e-01|   -5.860861|   -5.926920|   -6.528081|   -6.589516|   -6.161566|   -4.147185|    2.490303|
|         271|  5.8970e+00|  8.3094e-09|  7.7777e-01|  5.0000e-02|  5.0000e-01|  5.0000e-01|   -5.860726|   -5.926717|   -6.528206|   -6.589423|   -6.161387|   -4.180720|    2.490300|
|         272|  5.8967e+00|  8.3090e-09|  7.7777e-01|  5.0000e-02|  5.0000e-01|  5.0000e-01|   -5.860597|   -5.926519|   -6.528333|   -6.589334|   -6.161212|   -4.214196|    2.490297|
|         273|  5.8966e+00|  8.3086e-09|  7.7777e-01|  5.0000e-02|  5.0000e-01|  5.0000e-01|   -5.860473|   -5.926328|   -6.528461|   -6.589249|   -6.161041|   -4.247715|    2.490294|
|         274|  5.8964e+00|  8.3083e-09|  7.7777e-01|  5.0000e-02|  5.0000e-01|  5.0000e-01|   -5.860356|   -5.926141|   -6.528591|   -6.589168|   -6.160875|   -4.281285|    2.490291|
|         275|  5.8963e+00|  8.3079e-09|  7.7777e-01|  5.0000e-02|  5.0000e-01|  5.0000e-01|   -5.860245|   -5.925962|   -6.528724|   -6.589091|   -6.160715|   -4.314909|    2.490289|
|         276|  5.8968e+00|  8.3075e-09|  7.7777e-01|  5.0000e-02|  5.0000e-01|  5.0000e-01|   -5.860140|   -5.925788|   -6.528859|   -6.589018|   -6.160559|   -4.348585|    2.490286|
|         277|  5.8975e+00|  8.3071e-09|  7.7777e-01|  5.0000e-02|  5.0000e-01|  5.0000e-01|   -5.860041|   -5.925621|   -6.528996|   -6.588949|   -6.160408|   -4.376018|    2.490283|
|         278|  5.8971e+00|  8.3067e-09|  7.7777e-01|  5.0000e-02|  5.0000e-01|  5.0000e-01|   -5.859947|   -5.925459|   -6.529134|   -6.588884|   -6.160261|   -3.914610|    2.490281|
|         279|  5.8968e+00|  8.3063e-09|  7.7777e-01|  5.0000e-02|  5.0000e-01|  5.0000e-01|   -5.859860|   -5.925303|   -6.529275|   -6.588823|   -6.160120|   -4.060211|    2.490278|
|         280|  5.8965e+00|  8.3060e-09|  7.7777e-01|  5.0000e-02|  5.0000e-01|  5.0000e-01|   -5.859779|   -5.925152|   -6.529416|   -6.588766|   -6.159983|   -4.107012|    2.490276|
|         281|  5.8963e+00|  8.3056e-09|  7.7777e-01|  5.0000e-02|  5.0000e-01|  5.0000e-01|   -5.859703|   -5.925008|   -6.529560|   -6.588712|   -6.159850|   -4.141141|    2.490274|
|         282|  5.8959e+00|  8.3052e-09|  7.7777e-01|  5.0000e-02|  5.0000e-01|  5.0000e-01|   -5.859634|   -5.924869|   -6.529706|   -6.588663|   -6.159722|   -4.174652|    2.490272|
|         283|  5.8956e+00|  8.3048e-09|  7.7777e-01|  5.0000e-02|  5.0000e-01|  5.0000e-01|   -5.859570|   -5.924736|   -6.529853|   -6.588617|   -6.159599|   -4.208104|    2.490269|
|         284|  5.8954e+00|  8.3044e-09|  7.7777e-01|  5.0000e-02|  5.0000e-01|  5.0000e-01|   -5.859512|   -5.924609|   -6.530002|   -6.588575|   -6.159479|   -4.241595|    2.490267|
|         285|  5.8951e+00|  8.3040e-09|  7.7777e-01|  5.0000e-02|  5.0000e-01|  5.0000e-01|   -5.859460|   -5.924487|   -6.530153|   -6.588537|   -6.159365|   -4.275137|    2.490265|
|         286|  5.8948e+00|  8.3037e-09|  7.7777e-01|  5.0000e-02|  5.0000e-01|  5.0000e-01|   -5.859413|   -5.924371|   -6.530306|   -6.588502|   -6.159255|   -4.308730|    2.490263|
|         287|  5.8952e+00|  8.3033e-09|  7.7777e-01|  5.0000e-02|  5.0000e-01|  5.0000e-01|   -5.859373|   -5.924261|   -6.530461|   -6.588472|   -6.159150|   -4.342373|    2.490262|
|         288|  5.8960e+00|  8.3029e-09|  7.7777e-01|  5.0000e-02|  5.0000e-01|  5.0000e-01|   -5.859338|   -5.924156|   -6.530617|   -6.588446|   -6.159049|   -4.369804|    2.490260|
|         289|  5.8956e+00|  8.3025e-09|  7.7777e-01|  5.0000e-02|  5.0000e-01|  5.0000e-01|   -5.859309|   -5.924058|   -6.530776|   -6.588424|   -6.158953|   -3.909169|    2.490258|
|         290|  5.8953e+00|  8.3021e-09|  7.7777e-01|  5.0000e-02|  5.0000e-01|  5.0000e-01|   -5.859286|   -5.923965|   -6.530936|   -6.588406|   -6.158861|   -4.054654|    2.490257|
|         291|  5.8951e+00|  8.3017e-09|  7.7777e-01|  5.0000e-02|  5.0000e-01|  5.0000e-01|   -5.859268|   -5.923877|   -6.531098|   -6.588392|   -6.158774|   -4.101429|    2.490255|
|         292|  5.8949e+00|  8.3014e-09|  7.7777e-01|  5.0000e-02|  5.0000e-01|  5.0000e-01|   -5.859257|   -5.923796|   -6.531262|   -6.588382|   -6.158691|   -4.135541|    2.490254|
|         293|  5.8950e+00|  8.3010e-09|  7.7777e-01|  5.0000e-02|  5.0000e-01|  5.0000e-01|   -5.859251|   -5.923719|   -6.531428|   -6.588375|   -6.158612|   -4.169034|    2.490252|
|         294|  5.8947e+00|  8.3006e-09|  7.7777e-01|  5.0000e-02|  5.0000e-01|  5.0000e-01|   -5.859251|   -5.923649|   -6.531596|   -6.588373|   -6.158539|   -4.202465|    2.490251|
|         295|  5.8944e+00|  8.3002e-09|  7.7777e-01|  5.0000e-02|  5.0000e-01|  5.0000e-01|   -5.859257|   -5.923585|   -6.531766|   -6.588375|   -6.158470|   -4.235935|    2.490250|
|         296|  5.8941e+00|  8.2998e-09|  7.7777e-01|  5.0000e-02|  5.0000e-01|  5.0000e-01|   -5.859269|   -5.923526|   -6.531938|   -6.588381|   -6.158406|   -4.269453|    2.490248|
|         297|  5.8938e+00|  8.2995e-09|  7.7777e-01|  5.0000e-02|  5.0000e-01|  5.0000e-01|   -5.859286|   -5.923473|   -6.532112|   -6.588391|   -6.158346|   -4.303020|    2.490247|
|         298|  5.8943e+00|  8.2991e-09|  7.7777e-01|  5.0000e-02|  5.0000e-01|  5.0000e-01|   -5.859310|   -5.923425|   -6.532287|   -6.588405|   -6.158290|   -4.336636|    2.490246|
|         299|  5.8949e+00|  8.2987e-09|  7.7777e-01|  5.0000e-02|  5.0000e-01|  5.0000e-01|   -5.859339|   -5.923383|   -6.532465|   -6.588424|   -6.158239|   -4.364065|    2.490245|
|         300|  5.8946e+00|  8.2983e-09|  7.7777e-01|  5.0000e-02|  5.0000e-01|  5.0000e-01|   -5.859373|   -5.923347|   -6.532644|   -6.588446|   -6.158193|   -3.904115|    2.490245|
+-----------------------------------------------------------------------+
|        File Writing Summary       |              Filename             |
+-----------------------------------------------------------------------+
|SU2 binary restart                 |restart_flow.dat                   |
|Paraview                           |flow.vtu                           |
|Paraview surface                   |surface_flow.vtu                   |
+-----------------------------------------------------------------------+
+-------------------------------------------------------------------------------------------------------------------------------------------------------------------------------------+
|  Inner_Iter|   Time(sec)|      Min DT|      Max DT|     Min CFL|     Max CFL|     Avg CFL|    rms[Rho]|   rms[RhoU]|   rms[RhoV]|   rms[RhoW]|   rms[RhoE]|     rms[nu]|          CD|
+-------------------------------------------------------------------------------------------------------------------------------------------------------------------------------------+
|         301|  5.9677e+00|  8.2979e-09|  7.7777e-01|  5.0000e-02|  5.0000e-01|  5.0000e-01|   -5.859414|   -5.923316|   -6.532825|   -6.588472|   -6.158151|   -4.049498|    2.490244|
|         302|  5.9685e+00|  8.2976e-09|  7.7777e-01|  5.0000e-02|  5.0000e-01|  5.0000e-01|   -5.859460|   -5.923291|   -6.533008|   -6.588502|   -6.158113|   -4.096250|    2.490243|
|         303|  5.9691e+00|  8.2972e-09|  7.7777e-01|  5.0000e-02|  5.0000e-01|  5.0000e-01|   -5.859511|   -5.923271|   -6.533193|   -6.588536|   -6.158080|   -4.130345|    2.490242|
|         304|  5.9696e+00|  8.2968e-09|  7.7777e-01|  5.0000e-02|  5.0000e-01|  5.0000e-01|   -5.859569|   -5.923257|   -6.533380|   -6.588574|   -6.158052|   -4.163821|    2.490242|
|         305|  5.9698e+00|  8.2964e-09|  7.7777e-01|  5.0000e-02|  5.0000e-01|  5.0000e-01|   -5.859632|   -5.923249|   -6.533569|   -6.588616|   -6.158027|   -4.197232|    2.490241|
|         306|  5.9694e+00|  8.2960e-09|  7.7777e-01|  5.0000e-02|  5.0000e-01|  5.0000e-01|   -5.859700|   -5.923246|   -6.533760|   -6.588663|   -6.158007|   -4.230680|    2.490241|
|         307|  5.9690e+00|  8.2957e-09|  7.7777e-01|  5.0000e-02|  5.0000e-01|  5.0000e-01|   -5.859775|   -5.923249|   -6.533952|   -6.588713|   -6.157992|   -4.264175|    2.490241|
|         308|  5.9685e+00|  8.2953e-09|  7.7777e-01|  5.0000e-02|  5.0000e-01|  5.0000e-01|   -5.859854|   -5.923257|   -6.534146|   -6.588767|   -6.157980|   -4.297717|    2.490240|
|         309|  5.9687e+00|  8.2949e-09|  7.7777e-01|  5.0000e-02|  5.0000e-01|  5.0000e-01|   -5.859939|   -5.923270|   -6.534342|   -6.588824|   -6.157973|   -4.331305|    2.490240|
|         310|  5.9693e+00|  8.2945e-09|  7.7777e-01|  5.0000e-02|  5.0000e-01|  5.0000e-01|   -5.860029|   -5.923289|   -6.534539|   -6.588886|   -6.157970|   -4.358731|    2.490240|
|         311|  5.9685e+00|  8.2941e-09|  7.7777e-01|  5.0000e-02|  5.0000e-01|  5.0000e-01|   -5.860126|   -5.923313|   -6.534739|   -6.588951|   -6.157972|   -3.899417|    2.490240|
|         312|  5.9682e+00|  8.2938e-09|  7.7777e-01|  5.0000e-02|  5.0000e-01|  5.0000e-01|   -5.860227|   -5.923343|   -6.534940|   -6.589021|   -6.157978|   -4.044706|    2.490240|
|         313|  5.9677e+00|  8.2934e-09|  7.7777e-01|  5.0000e-02|  5.0000e-01|  5.0000e-01|   -5.860334|   -5.923378|   -6.535142|   -6.589094|   -6.157989|   -4.091436|    2.490240|
|         314|  5.9671e+00|  8.2930e-09|  7.7777e-01|  5.0000e-02|  5.0000e-01|  5.0000e-01|   -5.860447|   -5.923419|   -6.535346|   -6.589171|   -6.158003|   -4.125516|    2.490240|
|         315|  5.9667e+00|  8.2926e-09|  7.7777e-01|  5.0000e-02|  5.0000e-01|  5.0000e-01|   -5.860565|   -5.923466|   -6.535552|   -6.589252|   -6.158022|   -4.158976|    2.490241|
|         316|  5.9664e+00|  8.2923e-09|  7.7777e-01|  5.0000e-02|  5.0000e-01|  5.0000e-01|   -5.860688|   -5.923517|   -6.535760|   -6.589337|   -6.158046|   -4.192370|    2.490241|
|         317|  5.9671e+00|  8.2919e-09|  7.7777e-01|  5.0000e-02|  5.0000e-01|  5.0000e-01|   -5.860817|   -5.923574|   -6.535969|   -6.589426|   -6.158073|   -4.225800|    2.490241|
|         318|  5.9672e+00|  8.2915e-09|  7.7777e-01|  5.0000e-02|  5.0000e-01|  5.0000e-01|   -5.860952|   -5.923637|   -6.536180|   -6.589519|   -6.158105|   -4.259275|    2.490242|
|         319|  5.9671e+00|  8.2911e-09|  7.7777e-01|  5.0000e-02|  5.0000e-01|  5.0000e-01|   -5.861091|   -5.923705|   -6.536393|   -6.589615|   -6.158142|   -4.292795|    2.490243|
|         320|  5.9671e+00|  8.2908e-09|  7.7777e-01|  5.0000e-02|  5.0000e-01|  5.0000e-01|   -5.861237|   -5.923778|   -6.536607|   -6.589715|   -6.158183|   -4.326360|    2.490243|
|         321|  5.9676e+00|  8.2904e-09|  7.7777e-01|  5.0000e-02|  5.0000e-01|  5.0000e-01|   -5.861387|   -5.923857|   -6.536823|   -6.589819|   -6.158228|   -4.360008|    2.490244|
|         322|  5.9669e+00|  8.2900e-09|  7.7777e-01|  5.0000e-02|  5.0000e-01|  5.0000e-01|   -5.861543|   -5.923941|   -6.537041|   -6.589926|   -6.158277|   -3.895648|    2.490245|
|         323|  5.9664e+00|  8.2896e-09|  7.7777e-01|  5.0000e-02|  5.0000e-01|  5.0000e-01|   -5.861704|   -5.924031|   -6.537260|   -6.590038|   -6.158331|   -4.041305|    2.490246|
|         324|  5.9661e+00|  8.2893e-09|  7.7777e-01|  5.0000e-02|  5.0000e-01|  5.0000e-01|   -5.861871|   -5.924126|   -6.537482|   -6.590152|   -6.158389|   -4.088081|    2.490246|
|         325|  5.9655e+00|  8.2889e-09|  7.7777e-01|  5.0000e-02|  5.0000e-01|  5.0000e-01|   -5.862043|   -5.924227|   -6.537704|   -6.590271|   -6.158451|   -4.122151|    2.490247|
|         326|  5.9651e+00|  8.2885e-09|  7.7777e-01|  5.0000e-02|  5.0000e-01|  5.0000e-01|   -5.862220|   -5.924332|   -6.537929|   -6.590392|   -6.158518|   -4.155597|    2.490249|
|         327|  5.9646e+00|  8.2881e-09|  7.7777e-01|  5.0000e-02|  5.0000e-01|  5.0000e-01|   -5.862402|   -5.924443|   -6.538155|   -6.590517|   -6.158588|   -4.188977|    2.490250|
|         328|  5.9641e+00|  8.2878e-09|  7.7777e-01|  5.0000e-02|  5.0000e-01|  5.0000e-01|   -5.862589|   -5.924559|   -6.538382|   -6.590645|   -6.158663|   -4.222390|    2.490251|
|         329|  5.9634e+00|  8.2874e-09|  7.7777e-01|  5.0000e-02|  5.0000e-01|  5.0000e-01|   -5.862782|   -5.924681|   -6.538611|   -6.590777|   -6.158742|   -4.255847|    2.490252|
|         330|  5.9628e+00|  8.2870e-09|  7.7777e-01|  5.0000e-02|  5.0000e-01|  5.0000e-01|   -5.862980|   -5.924808|   -6.538842|   -6.590912|   -6.158826|   -4.289347|    2.490254|
|         331|  5.9628e+00|  8.2866e-09|  7.7777e-01|  5.0000e-02|  5.0000e-01|  5.0000e-01|   -5.863183|   -5.924940|   -6.539075|   -6.591050|   -6.158913|   -4.322891|    2.490255|
|         332|  5.9629e+00|  8.2863e-09|  7.7777e-01|  5.0000e-02|  5.0000e-01|  5.0000e-01|   -5.863391|   -5.925077|   -6.539310|   -6.591192|   -6.159005|   -4.350269|    2.490256|
|         333|  5.9623e+00|  8.2859e-09|  7.7777e-01|  5.0000e-02|  5.0000e-01|  5.0000e-01|   -5.863604|   -5.925220|   -6.539546|   -6.591336|   -6.159100|   -3.891158|    2.490258|
|         334|  5.9616e+00|  8.2855e-09|  7.7777e-01|  5.0000e-02|  5.0000e-01|  5.0000e-01|   -5.863822|   -5.925368|   -6.539783|   -6.591484|   -6.159200|   -4.036420|    2.490260|
|         335|  5.9610e+00|  8.2851e-09|  7.7777e-01|  5.0000e-02|  5.0000e-01|  5.0000e-01|   -5.864045|   -5.925520|   -6.540022|   -6.591634|   -6.159304|   -4.083131|    2.490261|
|         336|  5.9605e+00|  8.2848e-09|  7.7777e-01|  5.0000e-02|  5.0000e-01|  5.0000e-01|   -5.864273|   -5.925678|   -6.540263|   -6.591788|   -6.159412|   -4.117185|    2.490263|
|         337|  5.9602e+00|  8.2844e-09|  7.7777e-01|  5.0000e-02|  5.0000e-01|  5.0000e-01|   -5.864507|   -5.925842|   -6.540505|   -6.591945|   -6.159524|   -4.150617|    2.490265|
|         338|  5.9606e+00|  8.2840e-09|  7.7777e-01|  5.0000e-02|  5.0000e-01|  5.0000e-01|   -5.864745|   -5.926010|   -6.540749|   -6.592103|   -6.159640|   -4.183980|    2.490267|
|         339|  5.9603e+00|  8.2837e-09|  7.7777e-01|  5.0000e-02|  5.0000e-01|  5.0000e-01|   -5.864988|   -5.926183|   -6.540994|   -6.592265|   -6.159760|   -4.217377|    2.490269|
|         340|  5.9602e+00|  8.2833e-09|  7.7777e-01|  5.0000e-02|  5.0000e-01|  5.0000e-01|   -5.865235|   -5.926362|   -6.541241|   -6.592430|   -6.159884|   -4.250815|    2.490271|
|         341|  5.9597e+00|  8.2829e-09|  7.7777e-01|  5.0000e-02|  5.0000e-01|  5.0000e-01|   -5.865488|   -5.926545|   -6.541489|   -6.592597|   -6.160012|   -4.284295|    2.490273|
|         342|  5.9593e+00|  8.2825e-09|  7.7777e-01|  5.0000e-02|  5.0000e-01|  5.0000e-01|   -5.865745|   -5.926733|   -6.541739|   -6.592767|   -6.160143|   -4.317817|    2.490275|
|         343|  5.9596e+00|  8.2822e-09|  7.7777e-01|  5.0000e-02|  5.0000e-01|  5.0000e-01|   -5.866007|   -5.926926|   -6.541990|   -6.592940|   -6.160279|   -4.351417|    2.490278|
|         344|  5.9588e+00|  8.2818e-09|  7.7777e-01|  5.0000e-02|  5.0000e-01|  5.0000e-01|   -5.866273|   -5.927124|   -6.542243|   -6.593115|   -6.160418|   -3.887896|    2.490280|
|         345|  5.9582e+00|  8.2814e-09|  7.7777e-01|  5.0000e-02|  5.0000e-01|  5.0000e-01|   -5.866545|   -5.927327|   -6.542497|   -6.593293|   -6.160561|   -4.033432|    2.490283|
|         346|  5.9576e+00|  8.2811e-09|  7.7777e-01|  5.0000e-02|  5.0000e-01|  5.0000e-01|   -5.866821|   -5.927534|   -6.542753|   -6.593473|   -6.160707|   -4.080176|    2.490285|
|         347|  5.9569e+00|  8.2807e-09|  7.7777e-01|  5.0000e-02|  5.0000e-01|  5.0000e-01|   -5.867101|   -5.927747|   -6.543010|   -6.593656|   -6.160858|   -4.114222|    2.490288|
|         348|  5.9563e+00|  8.2803e-09|  7.7777e-01|  5.0000e-02|  5.0000e-01|  5.0000e-01|   -5.867386|   -5.927964|   -6.543269|   -6.593840|   -6.161012|   -4.147642|    2.490290|
|         349|  5.9556e+00|  8.2800e-09|  7.7777e-01|  5.0000e-02|  5.0000e-01|  5.0000e-01|   -5.867676|   -5.928186|   -6.543529|   -6.594027|   -6.161170|   -4.180993|    2.490293|
[...]
|        7256|  5.7953e+00|  6.8006e-09|  7.7777e-01|  5.0000e-02|  5.0000e-01|  5.0000e-01|   -6.285776|   -6.338747|   -6.929747|   -6.928419|   -6.556530|   -4.304321|    2.493208|
|        7257|  5.7953e+00|  6.8005e-09|  7.7777e-01|  5.0000e-02|  5.0000e-01|  5.0000e-01|   -6.286128|   -6.339172|   -6.929759|   -6.928419|   -6.556839|   -4.337560|    2.493204|
|        7258|  5.7953e+00|  6.8003e-09|  7.7777e-01|  5.0000e-02|  5.0000e-01|  5.0000e-01|   -6.286478|   -6.339597|   -6.929768|   -6.928417|   -6.557147|   -4.370690|    2.493199|
|        7259|  5.7952e+00|  6.8001e-09|  7.7777e-01|  5.0000e-02|  5.0000e-01|  5.0000e-01|   -6.286826|   -6.340020|   -6.929775|   -6.928413|   -6.557454|   -4.403810|    2.493195|
|        7260|  5.7952e+00|  6.8000e-09|  7.7777e-01|  5.0000e-02|  5.0000e-01|  5.0000e-01|   -6.287173|   -6.340442|   -6.929779|   -6.928407|   -6.557760|   -4.436931|    2.493190|
|        7261|  5.7951e+00|  6.7998e-09|  7.7777e-01|  5.0000e-02|  5.0000e-01|  5.0000e-01|   -6.287518|   -6.340863|   -6.929781|   -6.928399|   -6.558065|   -4.470052|    2.493186|
|        7262|  5.7951e+00|  6.7996e-09|  7.7777e-01|  5.0000e-02|  5.0000e-01|  5.0000e-01|   -6.287861|   -6.341282|   -6.929780|   -6.928389|   -6.558369|   -4.503171|    2.493181|
|        7263|  5.7951e+00|  6.7995e-09|  7.7777e-01|  5.0000e-02|  5.0000e-01|  5.0000e-01|   -6.288202|   -6.341700|   -6.929777|   -6.928378|   -6.558671|   -4.536286|    2.493177|
|        7264|  5.7950e+00|  6.7993e-09|  7.7777e-01|  5.0000e-02|  5.0000e-01|  5.0000e-01|   -6.288542|   -6.342116|   -6.929770|   -6.928365|   -6.558972|   -4.081111|    2.493172|
|        7265|  5.7950e+00|  6.7991e-09|  7.7777e-01|  5.0000e-02|  5.0000e-01|  5.0000e-01|   -6.288879|   -6.342532|   -6.929761|   -6.928349|   -6.559273|   -4.225469|    2.493168|
|        7266|  5.7949e+00|  6.7990e-09|  7.7777e-01|  5.0000e-02|  5.0000e-01|  5.0000e-01|   -6.289214|   -6.342945|   -6.929750|   -6.928332|   -6.559571|   -4.272002|    2.493163|
|        7267|  5.7949e+00|  6.7988e-09|  7.7777e-01|  5.0000e-02|  5.0000e-01|  5.0000e-01|   -6.289548|   -6.343357|   -6.929737|   -6.928313|   -6.559869|   -4.305904|    2.493158|
|        7268|  5.7949e+00|  6.7987e-09|  7.7777e-01|  5.0000e-02|  5.0000e-01|  5.0000e-01|   -6.289879|   -6.343767|   -6.929721|   -6.928292|   -6.560165|   -4.339144|    2.493154|
|        7269|  5.7948e+00|  6.7985e-09|  7.7777e-01|  5.0000e-02|  5.0000e-01|  5.0000e-01|   -6.290208|   -6.344176|   -6.929702|   -6.928270|   -6.560460|   -4.372276|    2.493149|
|        7270|  5.7948e+00|  6.7983e-09|  7.7777e-01|  5.0000e-02|  5.0000e-01|  5.0000e-01|   -6.290535|   -6.344583|   -6.929681|   -6.928245|   -6.560754|   -4.405398|    2.493145|
|        7271|  5.7947e+00|  6.7982e-09|  7.7777e-01|  5.0000e-02|  5.0000e-01|  5.0000e-01|   -6.290859|   -6.344988|   -6.929657|   -6.928218|   -6.561046|   -4.438520|    2.493140|
|        7272|  5.7947e+00|  6.7980e-09|  7.7777e-01|  5.0000e-02|  5.0000e-01|  5.0000e-01|   -6.291182|   -6.345391|   -6.929631|   -6.928190|   -6.561337|   -4.471643|    2.493135|
|        7273|  5.7947e+00|  6.7978e-09|  7.7777e-01|  5.0000e-02|  5.0000e-01|  5.0000e-01|   -6.291501|   -6.345793|   -6.929602|   -6.928159|   -6.561626|   -4.504764|    2.493131|
|        7274|  5.7946e+00|  6.7977e-09|  7.7777e-01|  5.0000e-02|  5.0000e-01|  5.0000e-01|   -6.291819|   -6.346192|   -6.929571|   -6.928127|   -6.561913|   -4.537882|    2.493126|
|        7275|  5.7946e+00|  6.7975e-09|  7.7777e-01|  5.0000e-02|  5.0000e-01|  5.0000e-01|   -6.292134|   -6.346590|   -6.929538|   -6.928093|   -6.562200|   -4.082663|    2.493121|
|        7276|  5.7946e+00|  6.7974e-09|  7.7777e-01|  5.0000e-02|  5.0000e-01|  5.0000e-01|   -6.292446|   -6.346985|   -6.929502|   -6.928057|   -6.562484|   -4.227031|    2.493117|
|        7277|  5.7945e+00|  6.7972e-09|  7.7777e-01|  5.0000e-02|  5.0000e-01|  5.0000e-01|   -6.292756|   -6.347378|   -6.929463|   -6.928020|   -6.562767|   -4.273566|    2.493112|
|        7278|  5.7945e+00|  6.7970e-09|  7.7777e-01|  5.0000e-02|  5.0000e-01|  5.0000e-01|   -6.293063|   -6.347769|   -6.929422|   -6.927980|   -6.563048|   -4.307470|    2.493107|
|        7279|  5.7944e+00|  6.7969e-09|  7.7777e-01|  5.0000e-02|  5.0000e-01|  5.0000e-01|   -6.293368|   -6.348158|   -6.929378|   -6.927939|   -6.563327|   -4.340711|    2.493103|
|        7280|  5.7944e+00|  6.7967e-09|  7.7777e-01|  5.0000e-02|  5.0000e-01|  5.0000e-01|   -6.293670|   -6.348545|   -6.929332|   -6.927896|   -6.563605|   -4.373844|    2.493098|
|        7281|  5.7943e+00|  6.7965e-09|  7.7777e-01|  5.0000e-02|  5.0000e-01|  5.0000e-01|   -6.293969|   -6.348929|   -6.929284|   -6.927852|   -6.563881|   -4.406967|    2.493093|
|        7282|  5.7943e+00|  6.7964e-09|  7.7777e-01|  5.0000e-02|  5.0000e-01|  5.0000e-01|   -6.294266|   -6.349312|   -6.929233|   -6.927806|   -6.564156|   -4.440091|    2.493089|
|        7283|  5.7943e+00|  6.7962e-09|  7.7777e-01|  5.0000e-02|  5.0000e-01|  5.0000e-01|   -6.294560|   -6.349691|   -6.929180|   -6.927759|   -6.564429|   -4.473216|    2.493084|
|        7284|  5.7942e+00|  6.7961e-09|  7.7777e-01|  5.0000e-02|  5.0000e-01|  5.0000e-01|   -6.294851|   -6.350069|   -6.929125|   -6.927709|   -6.564700|   -4.506339|    2.493079|
|        7285|  5.7942e+00|  6.7959e-09|  7.7777e-01|  5.0000e-02|  5.0000e-01|  5.0000e-01|   -6.295139|   -6.350444|   -6.929068|   -6.927658|   -6.564969|   -4.539459|    2.493074|
|        7286|  5.7942e+00|  6.7957e-09|  7.7777e-01|  5.0000e-02|  5.0000e-01|  5.0000e-01|   -6.295425|   -6.350816|   -6.929009|   -6.927606|   -6.565236|   -4.084192|    2.493070|
|        7287|  5.7941e+00|  6.7956e-09|  7.7777e-01|  5.0000e-02|  5.0000e-01|  5.0000e-01|   -6.295707|   -6.351186|   -6.928947|   -6.927552|   -6.565502|   -4.228570|    2.493065|
|        7288|  5.7941e+00|  6.7954e-09|  7.7777e-01|  5.0000e-02|  5.0000e-01|  5.0000e-01|   -6.295986|   -6.351554|   -6.928882|   -6.927496|   -6.565765|   -4.275107|    2.493060|
|        7289|  5.7940e+00|  6.7952e-09|  7.7777e-01|  5.0000e-02|  5.0000e-01|  5.0000e-01|   -6.296262|   -6.351918|   -6.928816|   -6.927439|   -6.566027|   -4.309012|    2.493055|
|        7290|  5.7940e+00|  6.7951e-09|  7.7777e-01|  5.0000e-02|  5.0000e-01|  5.0000e-01|   -6.296535|   -6.352280|   -6.928747|   -6.927380|   -6.566286|   -4.342256|    2.493051|
|        7291|  5.7940e+00|  6.7949e-09|  7.7777e-01|  5.0000e-02|  5.0000e-01|  5.0000e-01|   -6.296805|   -6.352640|   -6.928677|   -6.927320|   -6.566544|   -4.375391|    2.493046|
|        7292|  5.7939e+00|  6.7948e-09|  7.7777e-01|  5.0000e-02|  5.0000e-01|  5.0000e-01|   -6.297072|   -6.352996|   -6.928604|   -6.927259|   -6.566800|   -4.408517|    2.493041|
|        7293|  5.7939e+00|  6.7946e-09|  7.7777e-01|  5.0000e-02|  5.0000e-01|  5.0000e-01|   -6.297335|   -6.353350|   -6.928529|   -6.927196|   -6.567053|   -4.441643|    2.493036|
|        7294|  5.7939e+00|  6.7944e-09|  7.7777e-01|  5.0000e-02|  5.0000e-01|  5.0000e-01|   -6.297596|   -6.353701|   -6.928453|   -6.927131|   -6.567305|   -4.474771|    2.493031|
|        7295|  5.7938e+00|  6.7943e-09|  7.7777e-01|  5.0000e-02|  5.0000e-01|  5.0000e-01|   -6.297853|   -6.354049|   -6.928374|   -6.927066|   -6.567554|   -4.507897|    2.493027|
|        7296|  5.7938e+00|  6.7941e-09|  7.7777e-01|  5.0000e-02|  5.0000e-01|  5.0000e-01|   -6.298106|   -6.354394|   -6.928293|   -6.926999|   -6.567802|   -4.541021|    2.493022|
|        7297|  5.7937e+00|  6.7940e-09|  7.7777e-01|  5.0000e-02|  5.0000e-01|  5.0000e-01|   -6.298357|   -6.354736|   -6.928209|   -6.926931|   -6.568047|   -4.085700|    2.493017|
|        7298|  5.7937e+00|  6.7938e-09|  7.7777e-01|  5.0000e-02|  5.0000e-01|  5.0000e-01|   -6.298604|   -6.355075|   -6.928124|   -6.926862|   -6.568291|   -4.230089|    2.493012|
|        7299|  5.7937e+00|  6.7936e-09|  7.7777e-01|  5.0000e-02|  5.0000e-01|  5.0000e-01|   -6.298848|   -6.355411|   -6.928037|   -6.926791|   -6.568532|   -4.276629|    2.493007|
|        7300|  5.7936e+00|  6.7935e-09|  7.7777e-01|  5.0000e-02|  5.0000e-01|  5.0000e-01|   -6.299088|   -6.355744|   -6.927948|   -6.926719|   -6.568771|   -4.310535|    2.493002|
|        7301|  5.7936e+00|  6.7933e-09|  7.7777e-01|  5.0000e-02|  5.0000e-01|  5.0000e-01|   -6.299325|   -6.356074|   -6.927858|   -6.926646|   -6.569009|   -4.343780|    2.492998|
|        7302|  5.7935e+00|  6.7932e-09|  7.7777e-01|  5.0000e-02|  5.0000e-01|  5.0000e-01|   -6.299559|   -6.356401|   -6.927766|   -6.926572|   -6.569244|   -4.376916|    2.492993|
|        7303|  5.7935e+00|  6.7930e-09|  7.7777e-01|  5.0000e-02|  5.0000e-01|  5.0000e-01|   -6.299790|   -6.356725|   -6.927672|   -6.926498|   -6.569477|   -4.410042|    2.492988|
|        7304|  5.7934e+00|  6.7928e-09|  7.7777e-01|  5.0000e-02|  5.0000e-01|  5.0000e-01|   -6.300016|   -6.357045|   -6.927575|   -6.926422|   -6.569708|   -4.443169|    2.492983|
|        7305|  5.7934e+00|  6.7927e-09|  7.7777e-01|  5.0000e-02|  5.0000e-01|  5.0000e-01|   -6.300240|   -6.357362|   -6.927478|   -6.926345|   -6.569937|   -4.476297|    2.492978|
|        7306|  5.7934e+00|  6.7925e-09|  7.7777e-01|  5.0000e-02|  5.0000e-01|  5.0000e-01|   -6.300460|   -6.357675|   -6.927378|   -6.926267|   -6.570163|   -4.509423|    2.492973|
|        7307|  5.7933e+00|  6.7924e-09|  7.7777e-01|  5.0000e-02|  5.0000e-01|  5.0000e-01|   -6.300676|   -6.357985|   -6.927275|   -6.926189|   -6.570387|   -4.542547|    2.492968|
|        7308|  5.7933e+00|  6.7922e-09|  7.7777e-01|  5.0000e-02|  5.0000e-01|  5.0000e-01|   -6.300888|   -6.358292|   -6.927171|   -6.926109|   -6.570609|   -4.087180|    2.492963|
|        7309|  5.7933e+00|  6.7920e-09|  7.7777e-01|  5.0000e-02|  5.0000e-01|  5.0000e-01|   -6.301097|   -6.358595|   -6.927065|   -6.926028|   -6.570828|   -4.231577|    2.492958|
|        7310|  5.7932e+00|  6.7919e-09|  7.7777e-01|  5.0000e-02|  5.0000e-01|  5.0000e-01|   -6.301302|   -6.358895|   -6.926957|   -6.925947|   -6.571045|   -4.278118|    2.492953|
|        7311|  5.7932e+00|  6.7917e-09|  7.7777e-01|  5.0000e-02|  5.0000e-01|  5.0000e-01|   -6.301503|   -6.359191|   -6.926847|   -6.925864|   -6.571259|   -4.312025|    2.492949|
|        7312|  5.7931e+00|  6.7916e-09|  7.7777e-01|  5.0000e-02|  5.0000e-01|  5.0000e-01|   -6.301701|   -6.359484|   -6.926737|   -6.925781|   -6.571472|   -4.345271|    2.492944|
|        7313|  5.7931e+00|  6.7914e-09|  7.7777e-01|  5.0000e-02|  5.0000e-01|  5.0000e-01|   -6.301896|   -6.359773|   -6.926624|   -6.925697|   -6.571682|   -4.378408|    2.492939|
|        7314|  5.7930e+00|  6.7913e-09|  7.7777e-01|  5.0000e-02|  5.0000e-01|  5.0000e-01|   -6.302086|   -6.360058|   -6.926510|   -6.925612|   -6.571890|   -4.411536|    2.492934|
|        7315|  5.7930e+00|  6.7911e-09|  7.7777e-01|  5.0000e-02|  5.0000e-01|  5.0000e-01|   -6.302273|   -6.360340|   -6.926395|   -6.925526|   -6.572096|   -4.444665|    2.492929|
|        7316|  5.7930e+00|  6.7909e-09|  7.7777e-01|  5.0000e-02|  5.0000e-01|  5.0000e-01|   -6.302457|   -6.360619|   -6.926277|   -6.925440|   -6.572299|   -4.477795|    2.492924|
|        7317|  5.7929e+00|  6.7908e-09|  7.7777e-01|  5.0000e-02|  5.0000e-01|  5.0000e-01|   -6.302636|   -6.360893|   -6.926158|   -6.925353|   -6.572500|   -4.510924|    2.492919|
|        7318|  5.7929e+00|  6.7906e-09|  7.7777e-01|  5.0000e-02|  5.0000e-01|  5.0000e-01|   -6.302811|   -6.361164|   -6.926037|   -6.925265|   -6.572698|   -4.544050|    2.492914|
|        7319|  5.7929e+00|  6.7905e-09|  7.7777e-01|  5.0000e-02|  5.0000e-01|  5.0000e-01|   -6.302983|   -6.361431|   -6.925915|   -6.925177|   -6.572894|   -4.088636|    2.492909|
|        7320|  5.7928e+00|  6.7903e-09|  7.7777e-01|  5.0000e-02|  5.0000e-01|  5.0000e-01|   -6.303151|   -6.361694|   -6.925792|   -6.925088|   -6.573087|   -4.233043|    2.492904|
|        7321|  5.7928e+00|  6.7901e-09|  7.7777e-01|  5.0000e-02|  5.0000e-01|  5.0000e-01|   -6.303315|   -6.361953|   -6.925667|   -6.924999|   -6.573278|   -4.279587|    2.492899|
|        7322|  5.7928e+00|  6.7900e-09|  7.7777e-01|  5.0000e-02|  5.0000e-01|  5.0000e-01|   -6.303475|   -6.362209|   -6.925540|   -6.924908|   -6.573467|   -4.313497|    2.492894|
|        7323|  5.7927e+00|  6.7898e-09|  7.7777e-01|  5.0000e-02|  5.0000e-01|  5.0000e-01|   -6.303631|   -6.362460|   -6.925412|   -6.924818|   -6.573652|   -4.346745|    2.492889|
|        7324|  5.7927e+00|  6.7897e-09|  7.7777e-01|  5.0000e-02|  5.0000e-01|  5.0000e-01|   -6.303783|   -6.362707|   -6.925282|   -6.924726|   -6.573835|   -4.379885|    2.492884|
|        7325|  5.7926e+00|  6.7895e-09|  7.7777e-01|  5.0000e-02|  5.0000e-01|  5.0000e-01|   -6.303931|   -6.362951|   -6.925151|   -6.924634|   -6.574016|   -4.413016|    2.492879|
|        7326|  5.7926e+00|  6.7894e-09|  7.7777e-01|  5.0000e-02|  5.0000e-01|  5.0000e-01|   -6.304075|   -6.363190|   -6.925020|   -6.924541|   -6.574194|   -4.446148|    2.492874|
|        7327|  5.7926e+00|  6.7892e-09|  7.7777e-01|  5.0000e-02|  5.0000e-01|  5.0000e-01|   -6.304215|   -6.363426|   -6.924886|   -6.924448|   -6.574369|   -4.479281|    2.492869|
|        7328|  5.7925e+00|  6.7890e-09|  7.7777e-01|  5.0000e-02|  5.0000e-01|  5.0000e-01|   -6.304352|   -6.363657|   -6.924752|   -6.924354|   -6.574542|   -4.512414|    2.492863|
|        7329|  5.7925e+00|  6.7889e-09|  7.7777e-01|  5.0000e-02|  5.0000e-01|  5.0000e-01|   -6.304484|   -6.363884|   -6.924616|   -6.924260|   -6.574712|   -4.545545|    2.492858|
|        7330|  5.7925e+00|  6.7887e-09|  7.7777e-01|  5.0000e-02|  5.0000e-01|  5.0000e-01|   -6.304612|   -6.364107|   -6.924480|   -6.924166|   -6.574880|   -4.090067|    2.492853|
|        7331|  5.7924e+00|  6.7886e-09|  7.7777e-01|  5.0000e-02|  5.0000e-01|  5.0000e-01|   -6.304736|   -6.364326|   -6.924342|   -6.924071|   -6.575045|   -4.234487|    2.492848|
|        7332|  5.7924e+00|  6.7884e-09|  7.7777e-01|  5.0000e-02|  5.0000e-01|  5.0000e-01|   -6.304857|   -6.364541|   -6.924202|   -6.923976|   -6.575207|   -4.281035|    2.492843|
|        7333|  5.7923e+00|  6.7883e-09|  7.7777e-01|  5.0000e-02|  5.0000e-01|  5.0000e-01|   -6.304973|   -6.364752|   -6.924062|   -6.923881|   -6.575366|   -4.314948|    2.492838|
|        7334|  5.7923e+00|  6.7881e-09|  7.7777e-01|  5.0000e-02|  5.0000e-01|  5.0000e-01|   -6.305084|   -6.364958|   -6.923919|   -6.923786|   -6.575523|   -4.348199|    2.492833|
|        7335|  5.7923e+00|  6.7879e-09|  7.7777e-01|  5.0000e-02|  5.0000e-01|  5.0000e-01|   -6.305192|   -6.365160|   -6.923777|   -6.923691|   -6.575676|   -4.381342|    2.492828|
|        7336|  5.7922e+00|  6.7878e-09|  7.7777e-01|  5.0000e-02|  5.0000e-01|  5.0000e-01|   -6.305296|   -6.365358|   -6.923633|   -6.923595|   -6.575828|   -4.414476|    2.492823|
|        7337|  5.7922e+00|  6.7876e-09|  7.7777e-01|  5.0000e-02|  5.0000e-01|  5.0000e-01|   -6.305396|   -6.365551|   -6.923488|   -6.923500|   -6.575976|   -4.447612|    2.492818|
|        7338|  5.7922e+00|  6.7875e-09|  7.7777e-01|  5.0000e-02|  5.0000e-01|  5.0000e-01|   -6.305491|   -6.365741|   -6.923341|   -6.923404|   -6.576122|   -4.480749|    2.492812|
|        7339|  5.7921e+00|  6.7873e-09|  7.7777e-01|  5.0000e-02|  5.0000e-01|  5.0000e-01|   -6.305583|   -6.365926|   -6.923194|   -6.923309|   -6.576265|   -4.513886|    2.492807|
|        7340|  5.7921e+00|  6.7872e-09|  7.7777e-01|  5.0000e-02|  5.0000e-01|  5.0000e-01|   -6.305670|   -6.366106|   -6.923046|   -6.923213|   -6.576405|   -4.547022|    2.492802|
|        7341|  5.7921e+00|  6.7870e-09|  7.7777e-01|  5.0000e-02|  5.0000e-01|  5.0000e-01|   -6.305754|   -6.366282|   -6.922897|   -6.923117|   -6.576542|   -4.091470|    2.492797|
|        7342|  5.7920e+00|  6.7869e-09|  7.7777e-01|  5.0000e-02|  5.0000e-01|  5.0000e-01|   -6.305833|   -6.366454|   -6.922747|   -6.923021|   -6.576677|   -4.235906|    2.492792|
|        7343|  5.7920e+00|  6.7867e-09|  7.7777e-01|  5.0000e-02|  5.0000e-01|  5.0000e-01|   -6.305908|   -6.366622|   -6.922596|   -6.922926|   -6.576809|   -4.282458|    2.492787|
|        7344|  5.7919e+00|  6.7865e-09|  7.7777e-01|  5.0000e-02|  5.0000e-01|  5.0000e-01|   -6.305979|   -6.366784|   -6.922444|   -6.922830|   -6.576937|   -4.316373|    2.492782|
|        7345|  5.7919e+00|  6.7864e-09|  7.7777e-01|  5.0000e-02|  5.0000e-01|  5.0000e-01|   -6.306046|   -6.366943|   -6.922291|   -6.922734|   -6.577063|   -4.349627|    2.492776|
|        7346|  5.7919e+00|  6.7862e-09|  7.7777e-01|  5.0000e-02|  5.0000e-01|  5.0000e-01|   -6.306109|   -6.367097|   -6.922138|   -6.922639|   -6.577187|   -4.382773|    2.492771|
|        7347|  5.7918e+00|  6.7861e-09|  7.7777e-01|  5.0000e-02|  5.0000e-01|  5.0000e-01|   -6.306168|   -6.367247|   -6.921984|   -6.922543|   -6.577307|   -4.415912|    2.492766|
|        7348|  5.7918e+00|  6.7859e-09|  7.7777e-01|  5.0000e-02|  5.0000e-01|  5.0000e-01|   -6.306222|   -6.367392|   -6.921829|   -6.922448|   -6.577425|   -4.449051|    2.492761|
|        7349|  5.7918e+00|  6.7858e-09|  7.7777e-01|  5.0000e-02|  5.0000e-01|  5.0000e-01|   -6.306274|   -6.367533|   -6.921675|   -6.922354|   -6.577541|   -4.482193|    2.492756|
|        7350|  5.7917e+00|  6.7856e-09|  7.7777e-01|  5.0000e-02|  5.0000e-01|  5.0000e-01|   -6.306321|   -6.367670|   -6.921519|   -6.922260|   -6.577653|   -4.515335|    2.492750|
+-----------------------------------------------------------------------+
|        File Writing Summary       |              Filename             |
+-----------------------------------------------------------------------+
|SU2 binary restart                 |restart_flow.dat                   |
|Paraview                           |flow.vtu                           |

scontrol show job 1064662
JobId=1064662 JobName=m6_fine
   UserId=anthonyy(3152141) GroupId=anthonyy(3152141) MCS_label=N/A
   Priority=780130 Nice=0 Account=rrg-jphickey QOS=normal
   JobState=COMPLETING Reason=TimeLimit Dependency=(null)
   Requeue=0 Restarts=0 BatchFlag=1 Reboot=0 ExitCode=0:15
   RunTime=12:00:16 TimeLimit=12:00:00 TimeMin=N/A
   SubmitTime=2026-02-26T02:29:43 EligibleTime=2026-02-26T02:29:43
   AccrueTime=2026-02-26T02:29:43
   StartTime=2026-02-26T02:30:14 EndTime=2026-02-26T14:30:30 Deadline=N/A
   SuspendTime=None SecsPreSuspend=0 LastSchedEval=2026-02-26T02:30:14 Scheduler=Main
   Partition=compute AllocNode:Sid=tri-login02:304364
   ReqNodeList=(null) ExcNodeList=(null)
   NodeList=tri[0166,0396]
   BatchHost=tri0166
   NumNodes=2 NumCPUs=384 NumTasks=128 CPUs/Task=1 ReqB:S:C:T=0:0:*:*
   ReqTRES=cpu=128,mem=1534000M,node=2,billing=128
   AllocTRES=cpu=384,mem=1534000M,node=2,billing=384
   Socks/Node=* NtasksPerN:B:S:C=64:0:*:* CoreSpec=*
   MinCPUsNode=64 MinMemoryNode=0 MinTmpDiskNode=0
   Features=(null) DelayBoot=00:00:00
   OverSubscribe=NO Contiguous=0 Licenses=(null) Network=(null)
   Command=/scratch/anthonyy/reentry/orion/cases/m6_aoa24/run.sh
   WorkDir=/scratch/anthonyy/reentry/orion/cases/m6_aoa24
   Comment=/opt/slurm/bin/sbatch --export=NONE --get-user-env=L run.sh 
   StdErr=/scratch/anthonyy/reentry/orion/cases/m6_aoa24/orion_1064662.err
   StdIn=/dev/null
   StdOut=/scratch/anthonyy/reentry/orion/cases/m6_aoa24/orion_1064662.out
   TresPerTask=cpu=1
   

sacct -j 1064662
JobID           JobName    Account    Elapsed  MaxVMSize     MaxRSS  SystemCPU    UserCPU ExitCode 
------------ ---------- ---------- ---------- ---------- ---------- ---------- ---------- -------- 
1064662         m6_fine rrg-jphic+   12:00:16                         06:19:53 63-02:03:+      0:0 
1064662.bat+      batch rrg-jphic+   12:00:17          0      8812K  00:00.128  00:00.599     0:15 
1064662.ext+     extern rrg-jphic+   12:00:16                         00:00:00   00:00:00      0:0 
1064662.0       SU2_CFD rrg-jphic+   12:00:17          0   7783040K   06:19:53 63-02:03:+     0:15 

