Nodes: tri[0975,0997]
Tasks: 128
NPN:   64

-------------------------------------------------------------------------
|    ___ _   _ ___                                                      |
|   / __| | | |_  )   Release 7.5.1 "Blackbird"                         |
|   \__ \ |_| |/ /                                                      |
|   |___/\___//___|   Suite (Computational Fluid Dynamics Code)         |
|                                                                       |
-------------------------------------------------------------------------
| SU2 Project Website: https://su2code.github.io                        |
|                                                                       |
| The SU2 Project is maintained by the SU2 Foundation                   |
| (http://su2foundation.org)                                            |
-------------------------------------------------------------------------
| Copyright 2012-2023, SU2 Contributors                                 |
|                                                                       |
| SU2 is free software; you can redistribute it and/or                  |
| modify it under the terms of the GNU Lesser General Public            |
| License as published by the Free Software Foundation; either          |
| version 2.1 of the License, or (at your option) any later version.    |
|                                                                       |
| SU2 is distributed in the hope that it will be useful,                |
| but WITHOUT ANY WARRANTY; without even the implied warranty of        |
| MERCHANTABILITY or FITNESS FOR A PARTICULAR PURPOSE. See the GNU      |
| Lesser General Public License for more details.                       |
|                                                                       |
| You should have received a copy of the GNU Lesser General Public      |
| License along with SU2. If not, see <http://www.gnu.org/licenses/>.   |
-------------------------------------------------------------------------

Parsing config file for zone 0

----------------- Physical Case Definition ( Zone 0 ) -------------------
Compressible RANS equations.
Turbulence model: Spalart-Allmaras-noft2
Hybrid RANS/LES: No Hybrid RANS/LES
Mach number: 6.
Angle of attack (AoA): 24 deg, and angle of sideslip (AoS): 0 deg.
Reynolds number: 6.86229e+08. Reference length 5.
Reading and writing binary SU2 native restart files.
Read flow solution from: restart_flow.dat.
Non-Dimensional simulation (V=1.0, Rho=1.0, T=1.0 at the farfield).
The reference area will be computed using y(2D) or z(3D) projection.
The semi-span will be computed using the max y(3D) value.
The reference length is 0.64607 m.
Reference origin for moment evaluation is (0.25, 0, 0).
Surface(s) where the force coefficients are evaluated: ORION_SURFACE.

Input mesh file name: fine.su2

--------------- Space Numerical Integration ( Zone 0 ) ------------------
Jameson-Schmidt-Turkel scheme (2nd order in space) for the flow inviscid terms.
JST viscous coefficients (2nd & 4th): 0.5, 0.02.
The method includes a grid stretching correction (p = 0.3).
Scalar upwind solver for the turbulence model.
First order integration in space.
Average of gradients with correction (viscous flow terms).
Average of gradients with correction (viscous turbulence terms).
Gradient for upwind reconstruction: Green-Gauss.
Gradient for viscous and source terms: Green-Gauss.

--------------- Time Numerical Integration  ( Zone 0 ) ------------------
Local time stepping (steady state simulation).
Euler implicit method for the flow equations.
FGMRES is used for solving the linear system.
Using a ILU(0) preconditioning.
Convergence criteria of the linear solver: 1e-06.
Max number of linear iterations: 100.
CFL adaptation. Factor down: 0.5, factor up: 1.1,
                lower limit: 0.05, upper limit: 0.5,
                acceptable linear residual: 0.001.
Courant-Friedrichs-Lewy number:     0.03
Euler implicit time integration for the turbulence model.

------------------ Convergence Criteria  ( Zone 0 ) ---------------------
Maximum number of solver subiterations: 999999.
Begin convergence monitoring at iteration 5.
Residual minimum value: 1e-8.
Cauchy series min. value: 1e-10.
Number of Cauchy elements: 100.
Begin windowed time average at iteration 0.

-------------------- Output Information ( Zone 0 ) ----------------------
File writing frequency: 
+------------------------------------+
|                     File| Frequency|
+------------------------------------+
|                  RESTART|       150|
|                 PARAVIEW|       150|
|         SURFACE_PARAVIEW|       150|
+------------------------------------+
Writing the convergence history file every 1 inner iterations.
Writing the screen convergence history every 1 inner iterations.
The tabular file format is CSV (.csv).
Convergence history file name: history.
Forces breakdown file name: forces_breakdown.dat.
Surface file name: surface_flow.
Volume file name: flow.
Restart file name: restart_flow.

------------- Config File Boundary Information ( Zone 0 ) ---------------
+-----------------------------------------------------------------------+
|                        Marker Type|                        Marker Name|
+-----------------------------------------------------------------------+
|                          Far-field|                           FARFIELD|
+-----------------------------------------------------------------------+
|                     Heat flux wall|                      ORION_SURFACE|
+-----------------------------------------------------------------------+

-------------------- Output Preprocessing ( Zone 0 ) --------------------

WARNING: SURFACE_PRESSURE_DROP can only be computed for at least 2 surfaces (outlet, inlet, ...)

Screen output fields: INNER_ITER, WALL_TIME, MIN_DELTA_TIME, MAX_DELTA_TIME, MIN_CFL, MAX_CFL, AVG_CFL, RMS_DENSITY, RMS_MOMENTUM-X, RMS_MOMENTUM-Y, RMS_MOMENTUM-Z, RMS_ENERGY, RMS_NU_TILDE, DRAG
History output group(s): ITER, RMS_RES
Convergence field(s): RMS_DENSITY
Warning: No (valid) fields chosen for time convergence monitoring. Time convergence monitoring inactive.
Volume output fields: MACH, PRESSURE, TEMPERATURE, DENSITY, HEAT_FLUX, Y_PLUS, COORDINATES, SOLUTION

------------------- Geometry Preprocessing ( Zone 0 ) -------------------
Three dimensional problem.
62211324 grid points before partitioning.
190879888 volume elements before partitioning.
2 surface markers.
4104 boundary elements in index 0 (Marker = FARFIELD).
1824836 boundary elements in index 1 (Marker = ORION_SURFACE).
Executing the partitioning functions.
Building the graph adjacency structure.
Calling ParMETIS... graph partitioning complete (4959327 edge cuts).
Distributing ParMETIS coloring.
Rebalancing vertices.
Rebalancing volume element connectivity.
Rebalancing markers and surface elements.
66952290 vertices including ghost points. 
197997438 interior elements including halo cells. 
103171259 tetrahedra.
94500655 prisms.
325524 pyramids.
Establishing MPI communication patterns.
Setting point connectivity.
Renumbering points (Reverse Cuthill McKee Ordering).
Recomputing point connectivity.
Setting element connectivity.
Checking the numerical grid orientation.
All volume elements are correctly orientend.
All surface elements are correctly orientend.
Identifying edges and vertices.
Setting the control volume structure.
Volume of the computational grid: 535693.
Searching for the closest normal neighbors to the surfaces.
Storing a mapping from global to local point index.
Compute the surface curvature.
Max K: 132.896. Mean K: 3.9104. Standard deviation K: 7.49569.
Checking for periodicity.
Computing mesh quality statistics for the dual control volumes.
+--------------------------------------------------------------+
|           Mesh Quality Metric|        Minimum|        Maximum|
+--------------------------------------------------------------+
|    Orthogonality Angle (deg.)|        53.0661|             90|
|     CV Face Area Aspect Ratio|        1.01143|        75298.5|
|           CV Sub-Volume Ratio|        1.00029|        45.0258|
+--------------------------------------------------------------+
Finding max control volume width.
Communicating number of neighbors.
Reference area = 11.531 m^2.
Semi-span length = 2.49999 m.
Wetted area = 57.9072 m^2.
Area projection in the x-plane = 19.6343 m^2, y-plane = 11.531 m^2, z-plane = 11.531 m^2.
Max. coordinate in the x-direction = 2.575 m, y-direction = 2.49999 m, z-direction = 2.49999 m.
Min. coordinate in the x-direction = -0.71 m, y-direction = -2.49999 m, z-direction = -2.5 m.
Computing wall distances.

-------------------- Solver Preprocessing ( Zone 0 ) --------------------
Viscous flow: Computing pressure using the ideal gas law
based on the free-stream temperature and a density computed
from the Reynolds number.
Force coefficients computed using free-stream values.

-- Models:
+------------------------------------------------------------------------------+
|          Viscosity Model|        Conductivity Model|              Fluid Model|
+------------------------------------------------------------------------------+
|               SUTHERLAND|          CONSTANT_PRANDTL|             STANDARD_AIR|
+------------------------------------------------------------------------------+
-- Fluid properties:
+------------------------------------------------------------------------------+
|                  Name|    Dim. value|    Ref. value|      Unit|Non-dim. value|
+------------------------------------------------------------------------------+
|        Ref. Viscosity|     1.716e-05|       2455.73|   N.s/m^2|   6.98773e-09|
|      Sutherland Temp.|        273.15|        288.15|         K|      0.947944|
|     Sutherland Const.|         110.4|        288.15|         K|      0.383134|
+------------------------------------------------------------------------------+
|        Prandtl (Lam.)|             -|             -|         -|          0.72|
|       Prandtl (Turb.)|             -|             -|         -|           0.9|
+------------------------------------------------------------------------------+
|          Gas Constant|       287.058|       14467.7|  N.m/kg.K|     0.0198413|
|      Spec. Heat Ratio|             -|             -|         -|           1.4|
+------------------------------------------------------------------------------+
-- Initial and free-stream conditions:
+------------------------------------------------------------------------------+
|                  Name|    Dim. value|    Ref. value|      Unit|Non-dim. value|
+------------------------------------------------------------------------------+
|       Static Pressure|       99485.6|   5.01407e+06|        Pa|     0.0198413|
|               Density|       1.20274|       1.20274|    kg/m^3|             1|
|           Temperature|        288.15|        288.15|         K|             1|
|          Total Energy|   2.29123e+06|   4.16887e+06|   m^2/s^2|      0.549603|
|            Velocity-X|       1865.26|       2041.78|       m/s|      0.913545|
|            Velocity-Y|             0|       2041.78|       m/s|             0|
|            Velocity-Z|       830.468|       2041.78|       m/s|      0.406737|
|    Velocity Magnitude|       2041.78|       2041.78|       m/s|             1|
+------------------------------------------------------------------------------+
|             Viscosity|    1.7893e-05|       2455.73|   N.s/m^2|    7.2862e-09|
|          Conductivity|             -|   3.55289e+07|   W/m^2.K|             -|
|     Turb. Kin. Energy|       15633.3|   4.16887e+06|   m^2/s^2|       0.00375|
|     Spec. Dissipation|   1.05085e+08|       2041.78|       1/s|       51467.1|
+------------------------------------------------------------------------------+
|           Mach Number|             -|             -|         -|             6|
|       Reynolds Number|             -|             -|         -|   6.86229e+08|
+------------------------------------------------------------------------------+
Initialize Jacobian structure (Navier-Stokes). MG level: 0.
Initialize Jacobian structure (SA model).

------------------- Numerics Preprocessing ( Zone 0 ) -------------------

----------------- Integration Preprocessing ( Zone 0 ) ------------------

------------------- Iteration Preprocessing ( Zone 0 ) ------------------
Euler/Navier-Stokes/RANS fluid iteration.

------------------------------ Begin Solver -----------------------------

Simulation Run using the Single-zone Driver
WARNING: SU2 was not compiled for an AVX-capable architecture. Performance could be better,
         see https://su2code.github.io/docs_v7/Build-SU2-Linux-MacOS/#compiler-optimizations
+-------------------------------------------------------------------------------------------------------------------------------------------------------------------------------------+
|  Inner_Iter|   Time(sec)|      Min DT|      Max DT|     Min CFL|     Max CFL|     Avg CFL|    rms[Rho]|   rms[RhoU]|   rms[RhoV]|   rms[RhoW]|   rms[RhoE]|     rms[nu]|          CD|
+-------------------------------------------------------------------------------------------------------------------------------------------------------------------------------------+
|           0|  8.7318e+00|  2.2720e-10|  4.6179e-02|  5.0000e-02|  5.0000e-02|  5.0000e-02|   -5.699348|   -5.820451|   -6.437980|   -6.023834|   -5.996158|   -8.620548|    2.042467|
|           1|  7.1396e+00|  3.7866e-10|  7.6965e-02|  5.5000e-02|  5.5000e-02|  5.5000e-02|   -5.699362|   -5.820450|   -6.438028|   -6.023861|   -5.996196|   -8.620450|    2.042465|
|           2|  6.5101e+00|  4.1653e-10|  8.4662e-02|  6.0500e-02|  6.0500e-02|  6.0500e-02|   -5.699382|   -5.820446|   -6.438101|   -6.023902|   -5.996254|   -8.620408|    2.042463|
|           3|  6.1717e+00|  4.5818e-10|  9.3128e-02|  6.6550e-02|  6.6550e-02|  6.6550e-02|   -5.699402|   -5.820441|   -6.438180|   -6.023945|   -5.996315|   -8.620361|    2.042461|
|           4|  5.9541e+00|  5.0399e-10|  1.0244e-01|  7.3205e-02|  7.3205e-02|  7.3205e-02|   -5.699424|   -5.820435|   -6.438264|   -6.023992|   -5.996381|   -8.620309|    2.042459|
|           5|  5.8241e+00|  5.5439e-10|  1.1269e-01|  8.0526e-02|  8.0526e-02|  8.0526e-02|   -5.699447|   -5.820428|   -6.438353|   -6.024041|   -5.996452|   -8.620252|    2.042456|
|           6|  5.7242e+00|  6.0983e-10|  1.2395e-01|  8.8578e-02|  8.8578e-02|  8.8578e-02|   -5.699471|   -5.820419|   -6.438447|   -6.024093|   -5.996526|   -8.620190|    2.042454|
|           7|  5.6453e+00|  6.7082e-10|  1.3635e-01|  9.7436e-02|  9.7436e-02|  9.7436e-02|   -5.699495|   -5.820409|   -6.438545|   -6.024147|   -5.996605|   -8.620121|    2.042451|
|           8|  5.5909e+00|  7.3790e-10|  1.4998e-01|  1.0718e-01|  1.0718e-01|  1.0718e-01|   -5.699520|   -5.820397|   -6.438649|   -6.024204|   -5.996688|   -8.620046|    2.042447|
|           9|  5.5440e+00|  8.1169e-10|  1.6498e-01|  1.1790e-01|  1.1790e-01|  1.1790e-01|   -5.699544|   -5.820382|   -6.438756|   -6.024262|   -5.996775|   -8.619962|    2.042444|
|          10|  5.4999e+00|  8.9285e-10|  1.8148e-01|  1.2969e-01|  1.2969e-01|  1.2969e-01|   -5.699568|   -5.820365|   -6.438866|   -6.024322|   -5.996865|   -8.619871|    2.042440|
|          11|  5.4627e+00|  9.8214e-10|  1.9963e-01|  1.4266e-01|  1.4266e-01|  1.4266e-01|   -5.699591|   -5.820344|   -6.438979|   -6.024383|   -5.996957|   -8.619770|    2.042435|
|          12|  5.4747e+00|  1.0803e-09|  2.1959e-01|  1.5692e-01|  1.5692e-01|  1.5692e-01|   -5.699612|   -5.820318|   -6.439093|   -6.024444|   -5.997051|   -8.619659|    2.042431|
|          13|  5.4901e+00|  1.1884e-09|  2.4155e-01|  1.7261e-01|  1.7261e-01|  1.7261e-01|   -5.699630|   -5.820288|   -6.439206|   -6.024503|   -5.997145|   -8.619538|    2.042425|
|          14|  5.5135e+00|  1.3072e-09|  2.6571e-01|  1.8987e-01|  1.8987e-01|  1.8987e-01|   -5.699644|   -5.820251|   -6.439316|   -6.024560|   -5.997237|   -8.619404|    2.042420|
|          15|  5.5267e+00|  1.4379e-09|  2.9228e-01|  2.0886e-01|  2.0886e-01|  2.0886e-01|   -5.699653|   -5.820206|   -6.439422|   -6.024612|   -5.997326|   -8.619257|    2.042413|
|          16|  5.5374e+00|  1.5817e-09|  3.2150e-01|  2.2975e-01|  2.2975e-01|  2.2975e-01|   -5.699654|   -5.820151|   -6.439519|   -6.024658|   -5.997409|   -8.619095|    2.042407|
|          17|  5.5434e+00|  1.7399e-09|  3.5365e-01|  2.5272e-01|  2.5272e-01|  2.5272e-01|   -5.699645|   -5.820084|   -6.439603|   -6.024694|   -5.997483|   -8.618917|    2.042399|
|          18|  5.5659e+00|  1.9139e-09|  3.8902e-01|  2.7800e-01|  2.7800e-01|  2.7800e-01|   -5.699624|   -5.820003|   -6.439672|   -6.024718|   -5.997542|   -8.618722|    2.042391|
|          19|  5.5868e+00|  2.1053e-09|  4.2792e-01|  3.0580e-01|  3.0580e-01|  3.0580e-01|   -5.699586|   -5.819904|   -6.439719|   -6.024724|   -5.997582|   -8.618508|    2.042382|
|          20|  5.5965e+00|  2.3158e-09|  4.7071e-01|  3.3637e-01|  3.3637e-01|  3.3637e-01|   -5.699528|   -5.819783|   -6.439737|   -6.024709|   -5.997595|   -8.618273|    2.042372|
|          21|  5.6296e+00|  2.5474e-09|  5.1779e-01|  3.7001e-01|  3.7001e-01|  3.7001e-01|   -5.699444|   -5.819634|   -6.439721|   -6.024665|   -5.997574|   -8.618015|    2.042361|
|          22|  5.6554e+00|  2.8021e-09|  5.6956e-01|  4.0701e-01|  4.0701e-01|  4.0701e-01|   -5.699328|   -5.819450|   -6.439661|   -6.024587|   -5.997508|   -8.617733|    2.042350|
|          23|  5.6748e+00|  3.0823e-09|  6.2652e-01|  4.4772e-01|  4.4772e-01|  4.4772e-01|   -5.699171|   -5.819224|   -6.439547|   -6.024463|   -5.997384|   -8.617424|    2.042337|
|          24|  5.6962e+00|  3.3905e-09|  6.8917e-01|  4.9249e-01|  4.9249e-01|  4.9249e-01|   -5.698963|   -5.818945|   -6.439370|   -6.024284|   -5.997186|   -8.617085|    2.042323|
|          25|  5.7133e+00|  3.7295e-09|  7.5809e-01|  5.0000e-01|  5.0000e-01|  5.0000e-01|   -5.698692|   -5.818600|   -6.439115|   -6.024037|   -5.996895|   -8.616715|    2.042308|
|          26|  5.7313e+00|  3.7864e-09|  7.6965e-01|  5.0000e-01|  5.0000e-01|  5.0000e-01|   -5.698343|   -5.818173|   -6.438770|   -6.023704|   -5.996487|   -8.616487|    2.042293|
|          27|  5.7515e+00|  3.7864e-09|  7.6965e-01|  5.0000e-01|  5.0000e-01|  5.0000e-01|   -5.697976|   -5.817724|   -6.438420|   -6.023356|   -5.996050|   -8.616289|    2.042278|
|          28|  5.7726e+00|  3.7864e-09|  7.6965e-01|  5.0000e-01|  5.0000e-01|  5.0000e-01|   -5.697605|   -5.817265|   -6.438083|   -6.023007|   -5.995602|   -8.616093|    2.042263|
|          29|  5.7894e+00|  3.7864e-09|  7.6965e-01|  5.0000e-01|  5.0000e-01|  5.0000e-01|   -5.697230|   -5.816797|   -6.437759|   -6.022658|   -5.995146|   -8.615898|    2.042248|
|          30|  5.8029e+00|  3.7863e-09|  7.6965e-01|  5.0000e-01|  5.0000e-01|  5.0000e-01|   -5.696851|   -5.816321|   -6.437449|   -6.022309|   -5.994681|   -8.615704|    2.042234|
|          31|  5.8164e+00|  3.7863e-09|  7.6965e-01|  5.0000e-01|  5.0000e-01|  5.0000e-01|   -5.696469|   -5.815838|   -6.437151|   -6.021959|   -5.994209|   -8.615512|    2.042220|
|          32|  5.8256e+00|  3.7863e-09|  7.6965e-01|  5.0000e-01|  5.0000e-01|  5.0000e-01|   -5.696083|   -5.815349|   -6.436863|   -6.021610|   -5.993729|   -8.615320|    2.042206|
|          33|  5.8327e+00|  3.7863e-09|  7.6965e-01|  5.0000e-01|  5.0000e-01|  5.0000e-01|   -5.695695|   -5.814853|   -6.436587|   -6.021261|   -5.993243|   -8.615130|    2.042192|
|          34|  5.8432e+00|  3.7863e-09|  7.6965e-01|  5.0000e-01|  5.0000e-01|  5.0000e-01|   -5.695304|   -5.814353|   -6.436321|   -6.020913|   -5.992752|   -8.614942|    2.042178|
|          35|  5.8564e+00|  3.7863e-09|  7.6965e-01|  5.0000e-01|  5.0000e-01|  5.0000e-01|   -5.694912|   -5.813848|   -6.436066|   -6.020566|   -5.992257|   -8.614754|    2.042165|
|          36|  5.8646e+00|  3.7862e-09|  7.6965e-01|  5.0000e-01|  5.0000e-01|  5.0000e-01|   -5.694520|   -5.813341|   -6.435820|   -6.020221|   -5.991760|   -8.614568|    2.042151|
|          37|  5.8754e+00|  3.7862e-09|  7.6965e-01|  5.0000e-01|  5.0000e-01|  5.0000e-01|   -5.694127|   -5.812832|   -6.435584|   -6.019878|   -5.991261|   -8.614382|    2.042138|
|          38|  5.8938e+00|  3.7862e-09|  7.6965e-01|  5.0000e-01|  5.0000e-01|  5.0000e-01|   -5.693735|   -5.812321|   -6.435356|   -6.019538|   -5.990760|   -8.614198|    2.042125|
|          39|  5.9191e+00|  3.7862e-09|  7.6965e-01|  5.0000e-01|  5.0000e-01|  5.0000e-01|   -5.693343|   -5.811811|   -6.435136|   -6.019200|   -5.990260|   -8.614015|    2.042113|
|          40|  5.9338e+00|  3.7862e-09|  7.6965e-01|  5.0000e-01|  5.0000e-01|  5.0000e-01|   -5.692954|   -5.811301|   -6.434924|   -6.018867|   -5.989761|   -8.613833|    2.042100|
|          41|  5.9452e+00|  3.7861e-09|  7.6965e-01|  5.0000e-01|  5.0000e-01|  5.0000e-01|   -5.692566|   -5.810793|   -6.434720|   -6.018537|   -5.989265|   -8.613652|    2.042088|
|          42|  5.9547e+00|  3.7861e-09|  7.6965e-01|  5.0000e-01|  5.0000e-01|  5.0000e-01|   -5.692182|   -5.810287|   -6.434523|   -6.018212|   -5.988771|   -8.613472|    2.042076|
|          43|  5.9597e+00|  3.7861e-09|  7.6965e-01|  5.0000e-01|  5.0000e-01|  5.0000e-01|   -5.691801|   -5.809785|   -6.434332|   -6.017892|   -5.988282|   -8.613293|    2.042064|
|          44|  5.9676e+00|  3.7861e-09|  7.6965e-01|  5.0000e-01|  5.0000e-01|  5.0000e-01|   -5.691424|   -5.809285|   -6.434147|   -6.017578|   -5.987797|   -8.613116|    2.042052|
|          45|  5.9752e+00|  3.7861e-09|  7.6965e-01|  5.0000e-01|  5.0000e-01|  5.0000e-01|   -5.691050|   -5.808790|   -6.433968|   -6.017268|   -5.987317|   -8.612939|    2.042040|
|          46|  5.9793e+00|  3.7861e-09|  7.6965e-01|  5.0000e-01|  5.0000e-01|  5.0000e-01|   -5.690682|   -5.808301|   -6.433795|   -6.016965|   -5.986844|   -8.612763|    2.042029|
|          47|  5.9846e+00|  3.7860e-09|  7.6965e-01|  5.0000e-01|  5.0000e-01|  5.0000e-01|   -5.690320|   -5.807817|   -6.433628|   -6.016667|   -5.986378|   -8.612589|    2.042018|
|          48|  5.9899e+00|  3.7860e-09|  7.6965e-01|  5.0000e-01|  5.0000e-01|  5.0000e-01|   -5.689963|   -5.807339|   -6.433467|   -6.016376|   -5.985919|   -8.612415|    2.042007|
|          49|  5.9950e+00|  3.7860e-09|  7.6965e-01|  5.0000e-01|  5.0000e-01|  5.0000e-01|   -5.689612|   -5.806869|   -6.433311|   -6.016092|   -5.985468|   -8.612243|    2.041996|
|          50|  5.9980e+00|  3.7860e-09|  7.6965e-01|  5.0000e-01|  5.0000e-01|  5.0000e-01|   -5.689268|   -5.806406|   -6.433161|   -6.015814|   -5.985026|   -8.612071|    2.041985|
|          51|  6.0025e+00|  3.7860e-09|  7.6965e-01|  5.0000e-01|  5.0000e-01|  5.0000e-01|   -5.688931|   -5.805951|   -6.433015|   -6.015543|   -5.984593|   -8.611901|    2.041975|
|          52|  6.0074e+00|  3.7860e-09|  7.6965e-01|  5.0000e-01|  5.0000e-01|  5.0000e-01|   -5.688600|   -5.805503|   -6.432874|   -6.015280|   -5.984168|   -8.611731|    2.041965|
|          53|  6.0094e+00|  3.7859e-09|  7.6965e-01|  5.0000e-01|  5.0000e-01|  5.0000e-01|   -5.688277|   -5.805063|   -6.432737|   -6.015023|   -5.983753|   -8.611563|    2.041955|
|          54|  6.0121e+00|  3.7859e-09|  7.6965e-01|  5.0000e-01|  5.0000e-01|  5.0000e-01|   -5.687960|   -5.804631|   -6.432604|   -6.014773|   -5.983347|   -8.611396|    2.041945|
|          55|  6.0142e+00|  3.7859e-09|  7.6965e-01|  5.0000e-01|  5.0000e-01|  5.0000e-01|   -5.687651|   -5.804208|   -6.432475|   -6.014530|   -5.982951|   -8.611230|    2.041935|
|          56|  6.0159e+00|  3.7859e-09|  7.6965e-01|  5.0000e-01|  5.0000e-01|  5.0000e-01|   -5.687349|   -5.803791|   -6.432349|   -6.014293|   -5.982563|   -8.611065|    2.041926|
|          57|  6.0219e+00|  3.7859e-09|  7.6965e-01|  5.0000e-01|  5.0000e-01|  5.0000e-01|   -5.687054|   -5.803383|   -6.432226|   -6.014064|   -5.982185|   -8.610901|    2.041916|
|          58|  6.0290e+00|  3.7858e-09|  7.6965e-01|  5.0000e-01|  5.0000e-01|  5.0000e-01|   -5.686766|   -5.802983|   -6.432107|   -6.013841|   -5.981816|   -8.610739|    2.041907|
|          59|  6.0353e+00|  3.7858e-09|  7.6965e-01|  5.0000e-01|  5.0000e-01|  5.0000e-01|   -5.686486|   -5.802592|   -6.431991|   -6.013624|   -5.981456|   -8.610577|    2.041898|
|          60|  6.0411e+00|  3.7858e-09|  7.6965e-01|  5.0000e-01|  5.0000e-01|  5.0000e-01|   -5.686213|   -5.802208|   -6.431878|   -6.013414|   -5.981105|   -8.610417|    2.041889|
|          61|  6.0492e+00|  3.7858e-09|  7.6965e-01|  5.0000e-01|  5.0000e-01|  5.0000e-01|   -5.685947|   -5.801832|   -6.431768|   -6.013211|   -5.980763|   -8.610258|    2.041881|
|          62|  6.0538e+00|  3.7858e-09|  7.6965e-01|  5.0000e-01|  5.0000e-01|  5.0000e-01|   -5.685688|   -5.801464|   -6.431661|   -6.013013|   -5.980430|   -8.610100|    2.041873|
|          63|  6.0575e+00|  3.7858e-09|  7.6965e-01|  5.0000e-01|  5.0000e-01|  5.0000e-01|   -5.685435|   -5.801103|   -6.431557|   -6.012821|   -5.980104|   -8.609943|    2.041864|
|          64|  6.0598e+00|  3.7857e-09|  7.6965e-01|  5.0000e-01|  5.0000e-01|  5.0000e-01|   -5.685190|   -5.800750|   -6.431455|   -6.012635|   -5.979787|   -8.609787|    2.041856|
|          65|  6.0637e+00|  3.7857e-09|  7.6965e-01|  5.0000e-01|  5.0000e-01|  5.0000e-01|   -5.684951|   -5.800404|   -6.431355|   -6.012454|   -5.979477|   -8.609633|    2.041849|
|          66|  6.0681e+00|  3.7857e-09|  7.6965e-01|  5.0000e-01|  5.0000e-01|  5.0000e-01|   -5.684718|   -5.800065|   -6.431258|   -6.012279|   -5.979175|   -8.609480|    2.041841|
|          67|  6.0725e+00|  3.7857e-09|  7.6965e-01|  5.0000e-01|  5.0000e-01|  5.0000e-01|   -5.684492|   -5.799733|   -6.431162|   -6.012109|   -5.978880|   -8.609328|    2.041834|
|          68|  6.0744e+00|  3.7857e-09|  7.6965e-01|  5.0000e-01|  5.0000e-01|  5.0000e-01|   -5.684272|   -5.799408|   -6.431069|   -6.011944|   -5.978592|   -8.609178|    2.041826|
|          69|  6.0752e+00|  3.7857e-09|  7.6965e-01|  5.0000e-01|  5.0000e-01|  5.0000e-01|   -5.684058|   -5.799089|   -6.430978|   -6.011784|   -5.978310|   -8.609029|    2.041819|
|          70|  6.0776e+00|  3.7856e-09|  7.6965e-01|  5.0000e-01|  5.0000e-01|  5.0000e-01|   -5.683850|   -5.798776|   -6.430888|   -6.011628|   -5.978035|   -8.608881|    2.041812|
|          71|  6.0787e+00|  3.7856e-09|  7.6965e-01|  5.0000e-01|  5.0000e-01|  5.0000e-01|   -5.683647|   -5.798469|   -6.430801|   -6.011477|   -5.977766|   -8.608735|    2.041806|
|          72|  6.0805e+00|  3.7856e-09|  7.6965e-01|  5.0000e-01|  5.0000e-01|  5.0000e-01|   -5.683450|   -5.798169|   -6.430715|   -6.011331|   -5.977503|   -8.608590|    2.041799|
|          73|  6.0827e+00|  3.7856e-09|  7.6965e-01|  5.0000e-01|  5.0000e-01|  5.0000e-01|   -5.683260|   -5.797874|   -6.430632|   -6.011191|   -5.977247|   -8.608446|    2.041793|
|          74|  6.0840e+00|  3.7856e-09|  7.6965e-01|  5.0000e-01|  5.0000e-01|  5.0000e-01|   -5.683075|   -5.797585|   -6.430552|   -6.011055|   -5.976996|   -8.608303|    2.041787|
|          75|  6.0853e+00|  3.7855e-09|  7.6965e-01|  5.0000e-01|  5.0000e-01|  5.0000e-01|   -5.682896|   -5.797302|   -6.430473|   -6.010925|   -5.976751|   -8.608163|    2.041781|
|          76|  6.0866e+00|  3.7855e-09|  7.6965e-01|  5.0000e-01|  5.0000e-01|  5.0000e-01|   -5.682722|   -5.797025|   -6.430396|   -6.010798|   -5.976511|   -8.608023|    2.041775|
|          77|  6.0895e+00|  3.7855e-09|  7.6965e-01|  5.0000e-01|  5.0000e-01|  5.0000e-01|   -5.682552|   -5.796752|   -6.430321|   -6.010676|   -5.976276|   -8.607885|    2.041770|
|          78|  6.0929e+00|  3.7855e-09|  7.6965e-01|  5.0000e-01|  5.0000e-01|  5.0000e-01|   -5.682387|   -5.796484|   -6.430249|   -6.010557|   -5.976045|   -8.607748|    2.041764|
|          79|  6.0953e+00|  3.7855e-09|  7.6965e-01|  5.0000e-01|  5.0000e-01|  5.0000e-01|   -5.682227|   -5.796222|   -6.430178|   -6.010442|   -5.975818|   -8.607613|    2.041759|
|          80|  6.0977e+00|  3.7855e-09|  7.6965e-01|  5.0000e-01|  5.0000e-01|  5.0000e-01|   -5.682072|   -5.795964|   -6.430108|   -6.010331|   -5.975596|   -8.607479|    2.041754|
|          81|  6.1001e+00|  3.7854e-09|  7.6965e-01|  5.0000e-01|  5.0000e-01|  5.0000e-01|   -5.681921|   -5.795711|   -6.430041|   -6.010224|   -5.975378|   -8.607347|    2.041749|
|          82|  6.1016e+00|  3.7854e-09|  7.6965e-01|  5.0000e-01|  5.0000e-01|  5.0000e-01|   -5.681774|   -5.795463|   -6.429976|   -6.010120|   -5.975164|   -8.607216|    2.041745|
|          83|  6.1029e+00|  3.7854e-09|  7.6965e-01|  5.0000e-01|  5.0000e-01|  5.0000e-01|   -5.681631|   -5.795218|   -6.429911|   -6.010019|   -5.974952|   -8.607086|    2.041741|
|          84|  6.1047e+00|  3.7854e-09|  7.6965e-01|  5.0000e-01|  5.0000e-01|  5.0000e-01|   -5.681492|   -5.794978|   -6.429848|   -6.009921|   -5.974744|   -8.606958|    2.041736|
|          85|  6.1062e+00|  3.7854e-09|  7.6965e-01|  5.0000e-01|  5.0000e-01|  5.0000e-01|   -5.681357|   -5.794742|   -6.429787|   -6.009827|   -5.974541|   -8.606832|    2.041732|
|          86|  6.1069e+00|  3.7854e-09|  7.6965e-01|  5.0000e-01|  5.0000e-01|  5.0000e-01|   -5.681227|   -5.794511|   -6.429729|   -6.009737|   -5.974341|   -8.606707|    2.041728|
|          87|  6.1080e+00|  3.7853e-09|  7.6965e-01|  5.0000e-01|  5.0000e-01|  5.0000e-01|   -5.681101|   -5.794284|   -6.429673|   -6.009651|   -5.974145|   -8.606584|    2.041725|
|          88|  6.1085e+00|  3.7853e-09|  7.6965e-01|  5.0000e-01|  5.0000e-01|  5.0000e-01|   -5.680980|   -5.794063|   -6.429620|   -6.009568|   -5.973953|   -8.606462|    2.041721|
|          89|  6.1093e+00|  3.7853e-09|  7.6965e-01|  5.0000e-01|  5.0000e-01|  5.0000e-01|   -5.680863|   -5.793845|   -6.429570|   -6.009490|   -5.973765|   -8.606341|    2.041718|
|          90|  6.1106e+00|  3.7853e-09|  7.6965e-01|  5.0000e-01|  5.0000e-01|  5.0000e-01|   -5.680749|   -5.793632|   -6.429522|   -6.009415|   -5.973581|   -8.606222|    2.041715|
|          91|  6.1115e+00|  3.7853e-09|  7.6965e-01|  5.0000e-01|  5.0000e-01|  5.0000e-01|   -5.680640|   -5.793424|   -6.429477|   -6.009343|   -5.973400|   -8.606105|    2.041712|
|          92|  6.1120e+00|  3.7852e-09|  7.6965e-01|  5.0000e-01|  5.0000e-01|  5.0000e-01|   -5.680535|   -5.793220|   -6.429434|   -6.009276|   -5.973222|   -8.605989|    2.041710|
|          93|  6.1120e+00|  3.7852e-09|  7.6965e-01|  5.0000e-01|  5.0000e-01|  5.0000e-01|   -5.680435|   -5.793020|   -6.429393|   -6.009213|   -5.973049|   -8.605875|    2.041707|
|          94|  6.1128e+00|  3.7852e-09|  7.6965e-01|  5.0000e-01|  5.0000e-01|  5.0000e-01|   -5.680338|   -5.792825|   -6.429355|   -6.009154|   -5.972879|   -8.605762|    2.041705|
|          95|  6.1145e+00|  3.7852e-09|  7.6965e-01|  5.0000e-01|  5.0000e-01|  5.0000e-01|   -5.680245|   -5.792634|   -6.429320|   -6.009098|   -5.972712|   -8.605651|    2.041703|
|          96|  6.1162e+00|  3.7852e-09|  7.6965e-01|  5.0000e-01|  5.0000e-01|  5.0000e-01|   -5.680156|   -5.792447|   -6.429286|   -6.009045|   -5.972549|   -8.605542|    2.041701|
|          97|  6.1171e+00|  3.7852e-09|  7.6965e-01|  5.0000e-01|  5.0000e-01|  5.0000e-01|   -5.680070|   -5.792264|   -6.429255|   -6.008997|   -5.972389|   -8.605434|    2.041699|
|          98|  6.1189e+00|  3.7851e-09|  7.6965e-01|  5.0000e-01|  5.0000e-01|  5.0000e-01|   -5.679988|   -5.792086|   -6.429226|   -6.008952|   -5.972232|   -8.605327|    2.041698|
|          99|  6.1190e+00|  3.7851e-09|  7.6965e-01|  5.0000e-01|  5.0000e-01|  5.0000e-01|   -5.679910|   -5.791911|   -6.429199|   -6.008910|   -5.972078|   -8.605222|    2.041696|
|         100|  6.1191e+00|  3.7851e-09|  7.6965e-01|  5.0000e-01|  5.0000e-01|  5.0000e-01|   -5.679836|   -5.791741|   -6.429174|   -6.008871|   -5.971928|   -8.605119|    2.041695|
|         101|  6.1192e+00|  3.7851e-09|  7.6965e-01|  5.0000e-01|  5.0000e-01|  5.0000e-01|   -5.679765|   -5.791575|   -6.429151|   -6.008837|   -5.971781|   -8.605017|    2.041694|
|         102|  6.1188e+00|  3.7851e-09|  7.6965e-01|  5.0000e-01|  5.0000e-01|  5.0000e-01|   -5.679699|   -5.791412|   -6.429131|   -6.008805|   -5.971637|   -8.604917|    2.041694|
|         103|  6.1187e+00|  3.7851e-09|  7.6965e-01|  5.0000e-01|  5.0000e-01|  5.0000e-01|   -5.679636|   -5.791254|   -6.429113|   -6.008777|   -5.971497|   -8.604819|    2.041693|
|         104|  6.1192e+00|  3.7850e-09|  7.6965e-01|  5.0000e-01|  5.0000e-01|  5.0000e-01|   -5.679576|   -5.791100|   -6.429096|   -6.008753|   -5.971360|   -8.604722|    2.041693|
|         105|  6.1193e+00|  3.7850e-09|  7.6965e-01|  5.0000e-01|  5.0000e-01|  5.0000e-01|   -5.679521|   -5.790950|   -6.429082|   -6.008732|   -5.971226|   -8.604626|    2.041693|
|         106|  6.1200e+00|  3.7850e-09|  7.6965e-01|  5.0000e-01|  5.0000e-01|  5.0000e-01|   -5.679469|   -5.790804|   -6.429070|   -6.008714|   -5.971095|   -8.604533|    2.041693|
|         107|  6.1199e+00|  3.7850e-09|  7.6965e-01|  5.0000e-01|  5.0000e-01|  5.0000e-01|   -5.679420|   -5.790662|   -6.429060|   -6.008699|   -5.970967|   -8.604441|    2.041693|
|         108|  6.1203e+00|  3.7850e-09|  7.6965e-01|  5.0000e-01|  5.0000e-01|  5.0000e-01|   -5.679376|   -5.790524|   -6.429051|   -6.008688|   -5.970843|   -8.604350|    2.041693|
|         109|  6.1205e+00|  3.7849e-09|  7.6965e-01|  5.0000e-01|  5.0000e-01|  5.0000e-01|   -5.679335|   -5.790390|   -6.429045|   -6.008680|   -5.970722|   -8.604261|    2.041694|
|         110|  6.1207e+00|  3.7849e-09|  7.6965e-01|  5.0000e-01|  5.0000e-01|  5.0000e-01|   -5.679298|   -5.790261|   -6.429040|   -6.008675|   -5.970604|   -8.604174|    2.041695|
|         111|  6.1206e+00|  3.7849e-09|  7.6965e-01|  5.0000e-01|  5.0000e-01|  5.0000e-01|   -5.679265|   -5.790135|   -6.429038|   -6.008674|   -5.970489|   -8.604088|    2.041696|
|         112|  6.1209e+00|  3.7849e-09|  7.6965e-01|  5.0000e-01|  5.0000e-01|  5.0000e-01|   -5.679235|   -5.790013|   -6.429038|   -6.008676|   -5.970378|   -8.604004|    2.041697|
|         113|  6.1211e+00|  3.7849e-09|  7.6965e-01|  5.0000e-01|  5.0000e-01|  5.0000e-01|   -5.679209|   -5.789896|   -6.429039|   -6.008682|   -5.970270|   -8.603922|    2.041699|
|         114|  6.1238e+00|  3.7849e-09|  7.6965e-01|  5.0000e-01|  5.0000e-01|  5.0000e-01|   -5.679187|   -5.789782|   -6.429043|   -6.008691|   -5.970165|   -8.603841|    2.041700|
|         115|  6.1291e+00|  3.7848e-09|  7.6965e-01|  5.0000e-01|  5.0000e-01|  5.0000e-01|   -5.679169|   -5.789673|   -6.429048|   -6.008703|   -5.970063|   -8.603762|    2.041702|
|         116|  6.1316e+00|  3.7848e-09|  7.6965e-01|  5.0000e-01|  5.0000e-01|  5.0000e-01|   -5.679154|   -5.789568|   -6.429055|   -6.008718|   -5.969965|   -8.603685|    2.041704|
|         117|  6.1328e+00|  3.7848e-09|  7.6965e-01|  5.0000e-01|  5.0000e-01|  5.0000e-01|   -5.679143|   -5.789466|   -6.429064|   -6.008737|   -5.969871|   -8.603609|    2.041706|
|         118|  6.1339e+00|  3.7848e-09|  7.6965e-01|  5.0000e-01|  5.0000e-01|  5.0000e-01|   -5.679137|   -5.789370|   -6.429075|   -6.008760|   -5.969780|   -8.603534|    2.041709|
|         119|  6.1343e+00|  3.7848e-09|  7.6965e-01|  5.0000e-01|  5.0000e-01|  5.0000e-01|   -5.679134|   -5.789277|   -6.429089|   -6.008785|   -5.969692|   -8.603462|    2.041711|
|         120|  6.1345e+00|  3.7848e-09|  7.6965e-01|  5.0000e-01|  5.0000e-01|  5.0000e-01|   -5.679135|   -5.789188|   -6.429103|   -6.008814|   -5.969608|   -8.603391|    2.041714|
|         121|  6.1348e+00|  3.7847e-09|  7.6965e-01|  5.0000e-01|  5.0000e-01|  5.0000e-01|   -5.679140|   -5.789103|   -6.429120|   -6.008847|   -5.969527|   -8.603322|    2.041717|
|         122|  6.1357e+00|  3.7847e-09|  7.6965e-01|  5.0000e-01|  5.0000e-01|  5.0000e-01|   -5.679149|   -5.789023|   -6.429139|   -6.008883|   -5.969450|   -8.603254|    2.041720|
|         123|  6.1375e+00|  3.7847e-09|  7.6965e-01|  5.0000e-01|  5.0000e-01|  5.0000e-01|   -5.679163|   -5.788947|   -6.429159|   -6.008923|   -5.969376|   -8.603188|    2.041724|
|         124|  6.1383e+00|  3.7847e-09|  7.6965e-01|  5.0000e-01|  5.0000e-01|  5.0000e-01|   -5.679180|   -5.788875|   -6.429181|   -6.008967|   -5.969306|   -8.603124|    2.041727|
|         125|  6.1387e+00|  3.7847e-09|  7.6965e-01|  5.0000e-01|  5.0000e-01|  5.0000e-01|   -5.679201|   -5.788808|   -6.429205|   -6.009013|   -5.969240|   -8.603062|    2.041731|
|         126|  6.1382e+00|  3.7846e-09|  7.6965e-01|  5.0000e-01|  5.0000e-01|  5.0000e-01|   -5.679225|   -5.788744|   -6.429231|   -6.009063|   -5.969176|   -8.603001|    2.041735|
|         127|  6.1377e+00|  3.7846e-09|  7.6965e-01|  5.0000e-01|  5.0000e-01|  5.0000e-01|   -5.679254|   -5.788684|   -6.429258|   -6.009116|   -5.969116|   -8.602942|    2.041739|
|         128|  6.1372e+00|  3.7846e-09|  7.6965e-01|  5.0000e-01|  5.0000e-01|  5.0000e-01|   -5.679286|   -5.788629|   -6.429288|   -6.009173|   -5.969060|   -8.602884|    2.041744|
|         129|  6.1374e+00|  3.7846e-09|  7.6965e-01|  5.0000e-01|  5.0000e-01|  5.0000e-01|   -5.679322|   -5.788578|   -6.429319|   -6.009234|   -5.969007|   -8.602829|    2.041748|
|         130|  6.1378e+00|  3.7846e-09|  7.6965e-01|  5.0000e-01|  5.0000e-01|  5.0000e-01|   -5.679363|   -5.788532|   -6.429352|   -6.009298|   -5.968958|   -8.602775|    2.041753|
|         131|  6.1381e+00|  3.7846e-09|  7.6965e-01|  5.0000e-01|  5.0000e-01|  5.0000e-01|   -5.679408|   -5.788490|   -6.429386|   -6.009366|   -5.968913|   -8.602722|    2.041758|
|         132|  6.1382e+00|  3.7845e-09|  7.6965e-01|  5.0000e-01|  5.0000e-01|  5.0000e-01|   -5.679456|   -5.788452|   -6.429422|   -6.009438|   -5.968871|   -8.602672|    2.041763|
|         133|  6.1385e+00|  3.7845e-09|  7.6965e-01|  5.0000e-01|  5.0000e-01|  5.0000e-01|   -5.679508|   -5.788418|   -6.429460|   -6.009513|   -5.968832|   -8.602623|    2.041769|
|         134|  6.1405e+00|  3.7845e-09|  7.6965e-01|  5.0000e-01|  5.0000e-01|  5.0000e-01|   -5.679563|   -5.788387|   -6.429500|   -6.009590|   -5.968797|   -8.602576|    2.041774|
|         135|  6.1427e+00|  3.7845e-09|  7.6965e-01|  5.0000e-01|  5.0000e-01|  5.0000e-01|   -5.679622|   -5.788361|   -6.429542|   -6.009672|   -5.968764|   -8.602530|    2.041780|
|         136|  6.1426e+00|  3.7845e-09|  7.6965e-01|  5.0000e-01|  5.0000e-01|  5.0000e-01|   -5.679685|   -5.788339|   -6.429585|   -6.009756|   -5.968735|   -8.602487|    2.041786|
|         137|  6.1432e+00|  3.7845e-09|  7.6965e-01|  5.0000e-01|  5.0000e-01|  5.0000e-01|   -5.679751|   -5.788321|   -6.429630|   -6.009844|   -5.968708|   -8.602445|    2.041792|
|         138|  6.1434e+00|  3.7844e-09|  7.6965e-01|  5.0000e-01|  5.0000e-01|  5.0000e-01|   -5.679820|   -5.788306|   -6.429677|   -6.009936|   -5.968686|   -8.602405|    2.041799|
|         139|  6.1435e+00|  3.7844e-09|  7.6965e-01|  5.0000e-01|  5.0000e-01|  5.0000e-01|   -5.679894|   -5.788296|   -6.429725|   -6.010030|   -5.968666|   -8.602366|    2.041805|
|         140|  6.1432e+00|  3.7844e-09|  7.6965e-01|  5.0000e-01|  5.0000e-01|  5.0000e-01|   -5.679970|   -5.788290|   -6.429774|   -6.010127|   -5.968649|   -8.602330|    2.041812|
|         141|  6.1432e+00|  3.7844e-09|  7.6965e-01|  5.0000e-01|  5.0000e-01|  5.0000e-01|   -5.680050|   -5.788287|   -6.429825|   -6.010227|   -5.968635|   -8.602295|    2.041819|
|         142|  6.1430e+00|  3.7844e-09|  7.6965e-01|  5.0000e-01|  5.0000e-01|  5.0000e-01|   -5.680133|   -5.788288|   -6.429878|   -6.010330|   -5.968624|   -8.602262|    2.041826|
|         143|  6.1429e+00|  3.7844e-09|  7.6965e-01|  5.0000e-01|  5.0000e-01|  5.0000e-01|   -5.680219|   -5.788293|   -6.429932|   -6.010436|   -5.968616|   -8.602230|    2.041834|
|         144|  6.1433e+00|  3.7843e-09|  7.6965e-01|  5.0000e-01|  5.0000e-01|  5.0000e-01|   -5.680310|   -5.788302|   -6.429989|   -6.010546|   -5.968611|   -8.602201|    2.041841|
|         145|  6.1432e+00|  3.7843e-09|  7.6965e-01|  5.0000e-01|  5.0000e-01|  5.0000e-01|   -5.680404|   -5.788314|   -6.430047|   -6.010658|   -5.968610|   -8.602173|    2.041849|
|         146|  6.1425e+00|  3.7843e-09|  7.6965e-01|  5.0000e-01|  5.0000e-01|  5.0000e-01|   -5.680501|   -5.788331|   -6.430107|   -6.010774|   -5.968612|   -8.602147|    2.041857|
|         147|  6.1424e+00|  3.7843e-09|  7.6965e-01|  5.0000e-01|  5.0000e-01|  5.0000e-01|   -5.680602|   -5.788351|   -6.430168|   -6.010892|   -5.968616|   -8.602123|    2.041865|
|         148|  6.1416e+00|  3.7843e-09|  7.6965e-01|  5.0000e-01|  5.0000e-01|  5.0000e-01|   -5.680706|   -5.788376|   -6.430232|   -6.011014|   -5.968624|   -8.602100|    2.041874|
|         149|  6.1415e+00|  3.7842e-09|  7.6965e-01|  5.0000e-01|  5.0000e-01|  5.0000e-01|   -5.680814|   -5.788404|   -6.430297|   -6.011139|   -5.968635|   -8.602080|    2.041882|
|         150|  6.1412e+00|  3.7842e-09|  7.6965e-01|  5.0000e-01|  5.0000e-01|  5.0000e-01|   -5.680926|   -5.788435|   -6.430363|   -6.011267|   -5.968650|   -8.602061|    2.041891|
+-----------------------------------------------------------------------+
|        File Writing Summary       |              Filename             |
+-----------------------------------------------------------------------+
|SU2 binary restart                 |restart_flow.dat                   |
|Paraview                           |flow.vtu                           |
|Paraview surface                   |surface_flow.vtu                   |
+-----------------------------------------------------------------------+
+-------------------------------------------------------------------------------------------------------------------------------------------------------------------------------------+
|  Inner_Iter|   Time(sec)|      Min DT|      Max DT|     Min CFL|     Max CFL|     Avg CFL|    rms[Rho]|   rms[RhoU]|   rms[RhoV]|   rms[RhoW]|   rms[RhoE]|     rms[nu]|          CD|
+-------------------------------------------------------------------------------------------------------------------------------------------------------------------------------------+
|         151|  6.2811e+00|  3.7842e-09|  7.6965e-01|  5.0000e-01|  5.0000e-01|  5.0000e-01|   -5.681041|   -5.788471|   -6.430432|   -6.011398|   -5.968667|   -8.602044|    2.041900|
|         152|  6.2816e+00|  3.7842e-09|  7.6965e-01|  5.0000e-01|  5.0000e-01|  5.0000e-01|   -5.681160|   -5.788511|   -6.430502|   -6.011531|   -5.968688|   -8.602029|    2.041909|
|         153|  6.2813e+00|  3.7842e-09|  7.6965e-01|  5.0000e-01|  5.0000e-01|  5.0000e-01|   -5.681281|   -5.788554|   -6.430573|   -6.011668|   -5.968711|   -8.602015|    2.041919|
|         154|  6.2810e+00|  3.7842e-09|  7.6965e-01|  5.0000e-01|  5.0000e-01|  5.0000e-01|   -5.681407|   -5.788602|   -6.430646|   -6.011807|   -5.968738|   -8.602003|    2.041928|
|         155|  6.2801e+00|  3.7841e-09|  7.6965e-01|  5.0000e-01|  5.0000e-01|  5.0000e-01|   -5.681535|   -5.788653|   -6.430720|   -6.011950|   -5.968767|   -8.601993|    2.041938|
|         156|  6.2790e+00|  3.7841e-09|  7.6965e-01|  5.0000e-01|  5.0000e-01|  5.0000e-01|   -5.681667|   -5.788708|   -6.430796|   -6.012095|   -5.968800|   -8.601985|    2.041948|
|         157|  6.2783e+00|  3.7841e-09|  7.6965e-01|  5.0000e-01|  5.0000e-01|  5.0000e-01|   -5.681803|   -5.788767|   -6.430874|   -6.012244|   -5.968835|   -8.601979|    2.041958|
|         158|  6.2776e+00|  3.7841e-09|  7.6965e-01|  5.0000e-01|  5.0000e-01|  5.0000e-01|   -5.681941|   -5.788829|   -6.430952|   -6.012395|   -5.968874|   -8.601974|    2.041969|
|         159|  6.2765e+00|  3.7841e-09|  7.6965e-01|  5.0000e-01|  5.0000e-01|  5.0000e-01|   -5.682084|   -5.788896|   -6.431032|   -6.012549|   -5.968916|   -8.601972|    2.041979|
|         160|  6.2745e+00|  3.7841e-09|  7.6965e-01|  5.0000e-01|  5.0000e-01|  5.0000e-01|   -5.682230|   -5.788967|   -6.431114|   -6.012707|   -5.968961|   -8.601971|    2.041990|
|         161|  6.2729e+00|  3.7840e-09|  7.6965e-01|  5.0000e-01|  5.0000e-01|  5.0000e-01|   -5.682379|   -5.789041|   -6.431197|   -6.012867|   -5.969010|   -8.601972|    2.042001|
|         162|  6.2710e+00|  3.7840e-09|  7.6965e-01|  5.0000e-01|  5.0000e-01|  5.0000e-01|   -5.682531|   -5.789119|   -6.431282|   -6.013030|   -5.969061|   -8.601974|    2.042012|
|         163|  6.2699e+00|  3.7840e-09|  7.6965e-01|  5.0000e-01|  5.0000e-01|  5.0000e-01|   -5.682687|   -5.789202|   -6.431368|   -6.013196|   -5.969115|   -8.601979|    2.042024|
|         164|  6.2688e+00|  3.7840e-09|  7.6965e-01|  5.0000e-01|  5.0000e-01|  5.0000e-01|   -5.682847|   -5.789288|   -6.431457|   -6.013366|   -5.969173|   -8.601985|    2.042035|
|         165|  6.2678e+00|  3.7840e-09|  7.6965e-01|  5.0000e-01|  5.0000e-01|  5.0000e-01|   -5.683011|   -5.789378|   -6.431548|   -6.013538|   -5.969235|   -8.601993|    2.042047|
|         166|  6.2669e+00|  3.7840e-09|  7.6965e-01|  5.0000e-01|  5.0000e-01|  5.0000e-01|   -5.683178|   -5.789472|   -6.431640|   -6.013714|   -5.969300|   -8.602002|    2.042059|
|         167|  6.2649e+00|  3.7839e-09|  7.6965e-01|  5.0000e-01|  5.0000e-01|  5.0000e-01|   -5.683349|   -5.789570|   -6.431734|   -6.013892|   -5.969368|   -8.602014|    2.042071|
|         168|  6.2636e+00|  3.7839e-09|  7.6965e-01|  5.0000e-01|  5.0000e-01|  5.0000e-01|   -5.683524|   -5.789672|   -6.431829|   -6.014074|   -5.969440|   -8.602027|    2.042084|
|         169|  6.2648e+00|  3.7839e-09|  7.6965e-01|  5.0000e-01|  5.0000e-01|  5.0000e-01|   -5.683702|   -5.789778|   -6.431926|   -6.014259|   -5.969515|   -8.602042|    2.042096|
|         170|  6.2652e+00|  3.7839e-09|  7.6965e-01|  5.0000e-01|  5.0000e-01|  5.0000e-01|   -5.683884|   -5.789887|   -6.432025|   -6.014447|   -5.969594|   -8.602059|    2.042109|
|         171|  6.2651e+00|  3.7839e-09|  7.6965e-01|  5.0000e-01|  5.0000e-01|  5.0000e-01|   -5.684070|   -5.790001|   -6.432126|   -6.014639|   -5.969676|   -8.602078|    2.042122|
|         172|  6.2644e+00|  3.7838e-09|  7.6965e-01|  5.0000e-01|  5.0000e-01|  5.0000e-01|   -5.684259|   -5.790118|   -6.432228|   -6.014833|   -5.969761|   -8.602098|    2.042135|
|         173|  6.2633e+00|  3.7838e-09|  7.6965e-01|  5.0000e-01|  5.0000e-01|  5.0000e-01|   -5.684452|   -5.790240|   -6.432332|   -6.015031|   -5.969849|   -8.602120|    2.042148|
|         174|  6.2616e+00|  3.7838e-09|  7.6965e-01|  5.0000e-01|  5.0000e-01|  5.0000e-01|   -5.684648|   -5.790365|   -6.432437|   -6.015232|   -5.969941|   -8.602144|    2.042162|
|         175|  6.2607e+00|  3.7838e-09|  7.6965e-01|  5.0000e-01|  5.0000e-01|  5.0000e-01|   -5.684849|   -5.790494|   -6.432545|   -6.015436|   -5.970037|   -8.602170|    2.042175|
|         176|  6.2595e+00|  3.7838e-09|  7.6965e-01|  5.0000e-01|  5.0000e-01|  5.0000e-01|   -5.685052|   -5.790627|   -6.432654|   -6.015643|   -5.970135|   -8.602197|    2.042189|
|         177|  6.2589e+00|  3.7838e-09|  7.6965e-01|  5.0000e-01|  5.0000e-01|  5.0000e-01|   -5.685259|   -5.790763|   -6.432765|   -6.015854|   -5.970237|   -8.602226|    2.042203|
|         178|  6.2577e+00|  3.7837e-09|  7.6965e-01|  5.0000e-01|  5.0000e-01|  5.0000e-01|   -5.685470|   -5.790904|   -6.432878|   -6.016067|   -5.970341|   -8.602257|    2.042218|
|         179|  6.2559e+00|  3.7837e-09|  7.6965e-01|  5.0000e-01|  5.0000e-01|  5.0000e-01|   -5.685684|   -5.791048|   -6.432992|   -6.016283|   -5.970449|   -8.602290|    2.042232|
|         180|  6.2543e+00|  3.7837e-09|  7.6965e-01|  5.0000e-01|  5.0000e-01|  5.0000e-01|   -5.685901|   -5.791196|   -6.433108|   -6.016502|   -5.970561|   -8.602324|    2.042247|
|         181|  6.2526e+00|  3.7837e-09|  7.6965e-01|  5.0000e-01|  5.0000e-01|  5.0000e-01|   -5.686122|   -5.791347|   -6.433226|   -6.016724|   -5.970675|   -8.602360|    2.042262|
|         182|  6.2516e+00|  3.7837e-09|  7.6965e-01|  5.0000e-01|  5.0000e-01|  5.0000e-01|   -5.686346|   -5.791502|   -6.433345|   -6.016949|   -5.970792|   -8.602398|    2.042277|
|         183|  6.2504e+00|  3.7837e-09|  7.6965e-01|  5.0000e-01|  5.0000e-01|  5.0000e-01|   -5.686574|   -5.791661|   -6.433466|   -6.017176|   -5.970912|   -8.602437|    2.042292|
|         184|  6.2493e+00|  3.7836e-09|  7.6965e-01|  5.0000e-01|  5.0000e-01|  5.0000e-01|   -5.686805|   -5.791824|   -6.433589|   -6.017407|   -5.971036|   -8.602478|    2.042308|
|         185|  6.2480e+00|  3.7836e-09|  7.6965e-01|  5.0000e-01|  5.0000e-01|  5.0000e-01|   -5.687039|   -5.791991|   -6.433714|   -6.017641|   -5.971162|   -8.602521|    2.042323|
|         186|  6.2472e+00|  3.7836e-09|  7.6965e-01|  5.0000e-01|  5.0000e-01|  5.0000e-01|   -5.687277|   -5.792161|   -6.433840|   -6.017877|   -5.971292|   -8.602566|    2.042339|
|         187|  6.2462e+00|  3.7836e-09|  7.6965e-01|  5.0000e-01|  5.0000e-01|  5.0000e-01|   -5.687518|   -5.792335|   -6.433969|   -6.018117|   -5.971425|   -8.602612|    2.042355|
|         188|  6.2450e+00|  3.7836e-09|  7.6965e-01|  5.0000e-01|  5.0000e-01|  5.0000e-01|   -5.687762|   -5.792513|   -6.434099|   -6.018359|   -5.971561|   -8.602660|    2.042371|
|         189|  6.2455e+00|  3.7835e-09|  7.6965e-01|  5.0000e-01|  5.0000e-01|  5.0000e-01|   -5.688011|   -5.792695|   -6.434231|   -6.018605|   -5.971700|   -8.602709|    2.042387|
|         190|  6.2465e+00|  3.7835e-09|  7.6965e-01|  5.0000e-01|  5.0000e-01|  5.0000e-01|   -5.688262|   -5.792880|   -6.434365|   -6.018852|   -5.971841|   -8.602760|    2.042404|
|         191|  6.2462e+00|  3.7835e-09|  7.6965e-01|  5.0000e-01|  5.0000e-01|  5.0000e-01|   -5.688516|   -5.793069|   -6.434500|   -6.019103|   -5.971986|   -8.602813|    2.042421|
|         192|  6.2454e+00|  3.7835e-09|  7.6965e-01|  5.0000e-01|  5.0000e-01|  5.0000e-01|   -5.688774|   -5.793262|   -6.434637|   -6.019357|   -5.972134|   -8.602868|    2.042438|
|         193|  6.2447e+00|  3.7835e-09|  7.6965e-01|  5.0000e-01|  5.0000e-01|  5.0000e-01|   -5.689035|   -5.793459|   -6.434776|   -6.019613|   -5.972285|   -8.602924|    2.042455|
|         194|  6.2445e+00|  3.7835e-09|  7.6965e-01|  5.0000e-01|  5.0000e-01|  5.0000e-01|   -5.689299|   -5.793660|   -6.434917|   -6.019872|   -5.972439|   -8.602982|    2.042472|
|         195|  6.2431e+00|  3.7834e-09|  7.6965e-01|  5.0000e-01|  5.0000e-01|  5.0000e-01|   -5.689567|   -5.793864|   -6.435060|   -6.020134|   -5.972596|   -8.603041|    2.042490|
|         196|  6.2419e+00|  3.7834e-09|  7.6965e-01|  5.0000e-01|  5.0000e-01|  5.0000e-01|   -5.689838|   -5.794073|   -6.435204|   -6.020399|   -5.972757|   -8.603102|    2.042507|
|         197|  6.2407e+00|  3.7834e-09|  7.6965e-01|  5.0000e-01|  5.0000e-01|  5.0000e-01|   -5.690113|   -5.794285|   -6.435350|   -6.020667|   -5.972921|   -8.603165|    2.042525|
|         198|  6.2395e+00|  3.7834e-09|  7.6965e-01|  5.0000e-01|  5.0000e-01|  5.0000e-01|   -5.690392|   -5.794502|   -6.435498|   -6.020939|   -5.973088|   -8.603229|    2.042543|
|         199|  6.2391e+00|  3.7834e-09|  7.6965e-01|  5.0000e-01|  5.0000e-01|  5.0000e-01|   -5.690674|   -5.794722|   -6.435648|   -6.021213|   -5.973258|   -8.603295|    2.042561|
|         200|  6.2384e+00|  3.7834e-09|  7.6965e-01|  5.0000e-01|  5.0000e-01|  5.0000e-01|   -5.690960|   -5.794946|   -6.435799|   -6.021490|   -5.973432|   -8.603362|    2.042580|
|         201|  6.2373e+00|  3.7833e-09|  7.6965e-01|  5.0000e-01|  5.0000e-01|  5.0000e-01|   -5.691248|   -5.795174|   -6.435952|   -6.021771|   -5.973608|   -8.603431|    2.042598|
|         202|  6.2364e+00|  3.7833e-09|  7.6965e-01|  5.0000e-01|  5.0000e-01|  5.0000e-01|   -5.691540|   -5.795405|   -6.436106|   -6.022053|   -5.973787|   -8.603502|    2.042617|
|         203|  6.2348e+00|  3.7833e-09|  7.6965e-01|  5.0000e-01|  5.0000e-01|  5.0000e-01|   -5.691835|   -5.795639|   -6.436262|   -6.022339|   -5.973969|   -8.603574|    2.042636|
|         204|  6.2337e+00|  3.7833e-09|  7.6965e-01|  5.0000e-01|  5.0000e-01|  5.0000e-01|   -5.692134|   -5.795878|   -6.436420|   -6.022627|   -5.974154|   -8.603648|    2.042655|
|         205|  6.2324e+00|  3.7833e-09|  7.6965e-01|  5.0000e-01|  5.0000e-01|  5.0000e-01|   -5.692436|   -5.796121|   -6.436580|   -6.022919|   -5.974343|   -8.603723|    2.042674|
|         206|  6.2313e+00|  3.7833e-09|  7.6965e-01|  5.0000e-01|  5.0000e-01|  5.0000e-01|   -5.692742|   -5.796368|   -6.436742|   -6.023215|   -5.974535|   -8.603800|    2.042694|
|         207|  6.2301e+00|  3.7832e-09|  7.6965e-01|  5.0000e-01|  5.0000e-01|  5.0000e-01|   -5.693051|   -5.796619|   -6.436906|   -6.023512|   -5.974729|   -8.603879|    2.042713|
|         208|  6.2294e+00|  3.7832e-09|  7.6965e-01|  5.0000e-01|  5.0000e-01|  5.0000e-01|   -5.693363|   -5.796874|   -6.437071|   -6.023813|   -5.974927|   -8.603959|    2.042733|
|         209|  6.2293e+00|  3.7832e-09|  7.6965e-01|  5.0000e-01|  5.0000e-01|  5.0000e-01|   -5.693679|   -5.797133|   -6.437238|   -6.024117|   -5.975129|   -8.604041|    2.042753|
|         210|  6.2294e+00|  3.7832e-09|  7.6965e-01|  5.0000e-01|  5.0000e-01|  5.0000e-01|   -5.693998|   -5.797396|   -6.437407|   -6.024424|   -5.975333|   -8.604124|    2.042773|
|         211|  6.2300e+00|  3.7832e-09|  7.6965e-01|  5.0000e-01|  5.0000e-01|  5.0000e-01|   -5.694321|   -5.797663|   -6.437578|   -6.024733|   -5.975541|   -8.604209|    2.042794|
|         212|  6.2305e+00|  3.7831e-09|  7.6965e-01|  5.0000e-01|  5.0000e-01|  5.0000e-01|   -5.694647|   -5.797935|   -6.437751|   -6.025046|   -5.975752|   -8.604296|    2.042814|
|         213|  6.2297e+00|  3.7831e-09|  7.6965e-01|  5.0000e-01|  5.0000e-01|  5.0000e-01|   -5.694976|   -5.798210|   -6.437925|   -6.025361|   -5.975966|   -8.604384|    2.042835|
|         214|  6.2288e+00|  3.7831e-09|  7.6965e-01|  5.0000e-01|  5.0000e-01|  5.0000e-01|   -5.695309|   -5.798489|   -6.438100|   -6.025679|   -5.976183|   -8.604474|    2.042856|
|         215|  6.2279e+00|  3.7831e-09|  7.6965e-01|  5.0000e-01|  5.0000e-01|  5.0000e-01|   -5.695646|   -5.798773|   -6.438278|   -6.026001|   -5.976404|   -8.604565|    2.042877|
|         216|  6.2269e+00|  3.7831e-09|  7.6965e-01|  5.0000e-01|  5.0000e-01|  5.0000e-01|   -5.695987|   -5.799061|   -6.438457|   -6.026325|   -5.976629|   -8.604658|    2.042898|
|         217|  6.2261e+00|  3.7831e-09|  7.6965e-01|  5.0000e-01|  5.0000e-01|  5.0000e-01|   -5.696331|   -5.799352|   -6.438638|   -6.026652|   -5.976857|   -8.604752|    2.042919|
|         218|  6.2249e+00|  3.7830e-09|  7.6965e-01|  5.0000e-01|  5.0000e-01|  5.0000e-01|   -5.696679|   -5.799648|   -6.438820|   -6.026983|   -5.977088|   -8.604848|    2.042941|
|         219|  6.2239e+00|  3.7830e-09|  7.6965e-01|  5.0000e-01|  5.0000e-01|  5.0000e-01|   -5.697031|   -5.799948|   -6.439004|   -6.027316|   -5.977323|   -8.604946|    2.042963|
|         220|  6.2233e+00|  3.7830e-09|  7.6965e-01|  5.0000e-01|  5.0000e-01|  5.0000e-01|   -5.697387|   -5.800252|   -6.439190|   -6.027652|   -5.977561|   -8.605045|    2.042984|
|         221|  6.2223e+00|  3.7830e-09|  7.6965e-01|  5.0000e-01|  5.0000e-01|  5.0000e-01|   -5.697746|   -5.800560|   -6.439378|   -6.027991|   -5.977803|   -8.605146|    2.043006|
|         222|  6.2214e+00|  3.7830e-09|  7.6965e-01|  5.0000e-01|  5.0000e-01|  5.0000e-01|   -5.698109|   -5.800872|   -6.439566|   -6.028333|   -5.978047|   -8.605249|    2.043029|
|         223|  6.2202e+00|  3.7830e-09|  7.6965e-01|  5.0000e-01|  5.0000e-01|  5.0000e-01|   -5.698475|   -5.801188|   -6.439757|   -6.028677|   -5.978295|   -8.605353|    2.043051|
|         224|  6.2193e+00|  3.7829e-09|  7.6965e-01|  5.0000e-01|  5.0000e-01|  5.0000e-01|   -5.698845|   -5.801508|   -6.439948|   -6.029025|   -5.978547|   -8.605458|    2.043074|
|         225|  6.2182e+00|  3.7829e-09|  7.6965e-01|  5.0000e-01|  5.0000e-01|  5.0000e-01|   -5.699219|   -5.801832|   -6.440141|   -6.029375|   -5.978801|   -8.605565|    2.043097|
|         226|  6.2176e+00|  3.7829e-09|  7.6965e-01|  5.0000e-01|  5.0000e-01|  5.0000e-01|   -5.699595|   -5.802160|   -6.440335|   -6.029728|   -5.979058|   -8.605674|    2.043119|
|         227|  6.2169e+00|  3.7829e-09|  7.6965e-01|  5.0000e-01|  5.0000e-01|  5.0000e-01|   -5.699976|   -5.802493|   -6.440530|   -6.030085|   -5.979319|   -8.605784|    2.043143|
|         228|  6.2159e+00|  3.7829e-09|  7.6965e-01|  5.0000e-01|  5.0000e-01|  5.0000e-01|   -5.700360|   -5.802829|   -6.440727|   -6.030444|   -5.979583|   -8.605895|    2.043166|
|         229|  6.2149e+00|  3.7829e-09|  7.6965e-01|  5.0000e-01|  5.0000e-01|  5.0000e-01|   -5.700748|   -5.803170|   -6.440925|   -6.030807|   -5.979851|   -8.606008|    2.043189|
|         230|  6.2139e+00|  3.7828e-09|  7.6965e-01|  5.0000e-01|  5.0000e-01|  5.0000e-01|   -5.701140|   -5.803516|   -6.441126|   -6.031173|   -5.980123|   -8.606123|    2.043213|
|         231|  6.2126e+00|  3.7828e-09|  7.6965e-01|  5.0000e-01|  5.0000e-01|  5.0000e-01|   -5.701536|   -5.803865|   -6.441328|   -6.031542|   -5.980398|   -8.606239|    2.043237|
|         232|  6.2112e+00|  3.7828e-09|  7.6965e-01|  5.0000e-01|  5.0000e-01|  5.0000e-01|   -5.701936|   -5.804219|   -6.441530|   -6.031913|   -5.980676|   -8.606356|    2.043261|
|         233|  6.2098e+00|  3.7828e-09|  7.6965e-01|  5.0000e-01|  5.0000e-01|  5.0000e-01|   -5.702339|   -5.804577|   -6.441734|   -6.032288|   -5.980957|   -8.606475|    2.043285|
|         234|  6.2089e+00|  3.7828e-09|  7.6965e-01|  5.0000e-01|  5.0000e-01|  5.0000e-01|   -5.702745|   -5.804939|   -6.441939|   -6.032666|   -5.981242|   -8.606595|    2.043309|
|         235|  6.2079e+00|  3.7827e-09|  7.6965e-01|  5.0000e-01|  5.0000e-01|  5.0000e-01|   -5.703155|   -5.805305|   -6.442146|   -6.033046|   -5.981529|   -8.606716|    2.043333|
|         236|  6.2068e+00|  3.7827e-09|  7.6965e-01|  5.0000e-01|  5.0000e-01|  5.0000e-01|   -5.703568|   -5.805676|   -6.442353|   -6.033429|   -5.981821|   -8.606839|    2.043358|
|         237|  6.2054e+00|  3.7827e-09|  7.6965e-01|  5.0000e-01|  5.0000e-01|  5.0000e-01|   -5.703985|   -5.806050|   -6.442562|   -6.033815|   -5.982115|   -8.606963|    2.043383|
|         238|  6.2045e+00|  3.7827e-09|  7.6965e-01|  5.0000e-01|  5.0000e-01|  5.0000e-01|   -5.704406|   -5.806429|   -6.442772|   -6.034203|   -5.982412|   -8.607089|    2.043408|
|         239|  6.2033e+00|  3.7827e-09|  7.6965e-01|  5.0000e-01|  5.0000e-01|  5.0000e-01|   -5.704830|   -5.806812|   -6.442984|   -6.034595|   -5.982713|   -8.607216|    2.043433|
|         240|  6.2024e+00|  3.7827e-09|  7.6965e-01|  5.0000e-01|  5.0000e-01|  5.0000e-01|   -5.705258|   -5.807199|   -6.443196|   -6.034990|   -5.983017|   -8.607344|    2.043458|
|         241|  6.2014e+00|  3.7826e-09|  7.6965e-01|  5.0000e-01|  5.0000e-01|  5.0000e-01|   -5.705689|   -5.807590|   -6.443410|   -6.035387|   -5.983324|   -8.607474|    2.043484|
|         242|  6.2005e+00|  3.7826e-09|  7.6965e-01|  5.0000e-01|  5.0000e-01|  5.0000e-01|   -5.706123|   -5.807986|   -6.443625|   -6.035788|   -5.983634|   -8.607605|    2.043509|
|         243|  6.1994e+00|  3.7826e-09|  7.6965e-01|  5.0000e-01|  5.0000e-01|  5.0000e-01|   -5.706561|   -5.808386|   -6.443841|   -6.036191|   -5.983948|   -8.607737|    2.043535|
|         244|  6.1985e+00|  3.7826e-09|  7.6965e-01|  5.0000e-01|  5.0000e-01|  5.0000e-01|   -5.707003|   -5.808789|   -6.444059|   -6.036598|   -5.984265|   -8.607871|    2.043561|
|         245|  6.1973e+00|  3.7826e-09|  7.6965e-01|  5.0000e-01|  5.0000e-01|  5.0000e-01|   -5.707448|   -5.809197|   -6.444277|   -6.037007|   -5.984585|   -8.608006|    2.043587|
|         246|  6.1961e+00|  3.7826e-09|  7.6965e-01|  5.0000e-01|  5.0000e-01|  5.0000e-01|   -5.707896|   -5.809609|   -6.444497|   -6.037418|   -5.984908|   -8.608142|    2.043614|
|         247|  6.1953e+00|  3.7825e-09|  7.6965e-01|  5.0000e-01|  5.0000e-01|  5.0000e-01|   -5.708347|   -5.810026|   -6.444718|   -6.037833|   -5.985235|   -8.608280|    2.043640|
|         248|  6.1946e+00|  3.7825e-09|  7.6965e-01|  5.0000e-01|  5.0000e-01|  5.0000e-01|   -5.708802|   -5.810446|   -6.444940|   -6.038250|   -5.985564|   -8.608419|    2.043667|
|         249|  6.1941e+00|  3.7825e-09|  7.6965e-01|  5.0000e-01|  5.0000e-01|  5.0000e-01|   -5.709260|   -5.810870|   -6.445164|   -6.038670|   -5.985897|   -8.608559|    2.043694|
|         250|  6.1943e+00|  3.7825e-09|  7.6965e-01|  5.0000e-01|  5.0000e-01|  5.0000e-01|   -5.709721|   -5.811299|   -6.445389|   -6.039092|   -5.986232|   -8.608700|    2.043721|
|         251|  6.1937e+00|  3.7825e-09|  7.6965e-01|  5.0000e-01|  5.0000e-01|  5.0000e-01|   -5.710186|   -5.811731|   -6.445615|   -6.039518|   -5.986571|   -8.608843|    2.043748|
|         252|  6.1931e+00|  3.7824e-09|  7.6965e-01|  5.0000e-01|  5.0000e-01|  5.0000e-01|   -5.710655|   -5.812167|   -6.445842|   -6.039946|   -5.986913|   -8.608986|    2.043775|
|         253|  6.1923e+00|  3.7824e-09|  7.6965e-01|  5.0000e-01|  5.0000e-01|  5.0000e-01|   -5.711126|   -5.812608|   -6.446071|   -6.040376|   -5.987258|   -8.609132|    2.043802|
|         254|  6.1916e+00|  3.7824e-09|  7.6965e-01|  5.0000e-01|  5.0000e-01|  5.0000e-01|   -5.711601|   -5.813052|   -6.446300|   -6.040810|   -5.987606|   -8.609278|    2.043830|
|         255|  6.1907e+00|  3.7824e-09|  7.6965e-01|  5.0000e-01|  5.0000e-01|  5.0000e-01|   -5.712079|   -5.813500|   -6.446530|   -6.041246|   -5.987958|   -8.609425|    2.043858|
|         256|  6.1902e+00|  3.7824e-09|  7.6965e-01|  5.0000e-01|  5.0000e-01|  5.0000e-01|   -5.712560|   -5.813952|   -6.446762|   -6.041684|   -5.988312|   -8.609574|    2.043886|
|         257|  6.1899e+00|  3.7824e-09|  7.6965e-01|  5.0000e-01|  5.0000e-01|  5.0000e-01|   -5.713044|   -5.814407|   -6.446995|   -6.042125|   -5.988669|   -8.609724|    2.043914|
|         258|  6.1891e+00|  3.7823e-09|  7.6965e-01|  5.0000e-01|  5.0000e-01|  5.0000e-01|   -5.713531|   -5.814867|   -6.447229|   -6.042569|   -5.989029|   -8.609875|    2.043942|
|         259|  6.1882e+00|  3.7823e-09|  7.6965e-01|  5.0000e-01|  5.0000e-01|  5.0000e-01|   -5.714022|   -5.815330|   -6.447464|   -6.043015|   -5.989392|   -8.610027|    2.043971|
|         260|  6.1875e+00|  3.7823e-09|  7.6965e-01|  5.0000e-01|  5.0000e-01|  5.0000e-01|   -5.714515|   -5.815797|   -6.447700|   -6.043464|   -5.989758|   -8.610180|    2.043999|
|         261|  6.1867e+00|  3.7823e-09|  7.6965e-01|  5.0000e-01|  5.0000e-01|  5.0000e-01|   -5.715012|   -5.816268|   -6.447938|   -6.043915|   -5.990127|   -8.610335|    2.044028|
|         262|  6.1860e+00|  3.7823e-09|  7.6965e-01|  5.0000e-01|  5.0000e-01|  5.0000e-01|   -5.715512|   -5.816742|   -6.448177|   -6.044369|   -5.990499|   -8.610490|    2.044057|
|         263|  6.1853e+00|  3.7823e-09|  7.6965e-01|  5.0000e-01|  5.0000e-01|  5.0000e-01|   -5.716015|   -5.817221|   -6.448418|   -6.044825|   -5.990874|   -8.610647|    2.044086|
|         264|  6.1849e+00|  3.7822e-09|  7.6965e-01|  5.0000e-01|  5.0000e-01|  5.0000e-01|   -5.716522|   -5.817703|   -6.448659|   -6.045284|   -5.991252|   -8.610805|    2.044115|
|         265|  6.1842e+00|  3.7822e-09|  7.6965e-01|  5.0000e-01|  5.0000e-01|  5.0000e-01|   -5.717031|   -5.818189|   -6.448902|   -6.045746|   -5.991633|   -8.610963|    2.044145|
|         266|  6.1833e+00|  3.7822e-09|  7.6965e-01|  5.0000e-01|  5.0000e-01|  5.0000e-01|   -5.717543|   -5.818678|   -6.449146|   -6.046210|   -5.992017|   -8.611123|    2.044174|
|         267|  6.1825e+00|  3.7822e-09|  7.6965e-01|  5.0000e-01|  5.0000e-01|  5.0000e-01|   -5.718059|   -5.819172|   -6.449391|   -6.046677|   -5.992403|   -8.611284|    2.044204|
|         268|  6.1818e+00|  3.7822e-09|  7.6965e-01|  5.0000e-01|  5.0000e-01|  5.0000e-01|   -5.718577|   -5.819669|   -6.449638|   -6.047146|   -5.992793|   -8.611446|    2.044234|
|         269|  6.1819e+00|  3.7821e-09|  7.6965e-01|  5.0000e-01|  5.0000e-01|  5.0000e-01|   -5.719098|   -5.820169|   -6.449885|   -6.047617|   -5.993185|   -8.611609|    2.044264|
|         270|  6.1824e+00|  3.7821e-09|  7.6965e-01|  5.0000e-01|  5.0000e-01|  5.0000e-01|   -5.719623|   -5.820674|   -6.450133|   -6.048091|   -5.993580|   -8.611773|    2.044294|
|         271|  6.1830e+00|  3.7821e-09|  7.6965e-01|  5.0000e-01|  5.0000e-01|  5.0000e-01|   -5.720150|   -5.821181|   -6.450382|   -6.048567|   -5.993978|   -8.611938|    2.044325|
|         272|  6.1826e+00|  3.7821e-09|  7.6965e-01|  5.0000e-01|  5.0000e-01|  5.0000e-01|   -5.720680|   -5.821693|   -6.450632|   -6.049045|   -5.994378|   -8.612104|    2.044355|
|         273|  6.1823e+00|  3.7821e-09|  7.6965e-01|  5.0000e-01|  5.0000e-01|  5.0000e-01|   -5.721212|   -5.822208|   -6.450883|   -6.049526|   -5.994781|   -8.612271|    2.044386|
|         274|  6.1820e+00|  3.7821e-09|  7.6965e-01|  5.0000e-01|  5.0000e-01|  5.0000e-01|   -5.721748|   -5.822727|   -6.451135|   -6.050009|   -5.995186|   -8.612438|    2.044417|
|         275|  6.1818e+00|  3.7820e-09|  7.6965e-01|  5.0000e-01|  5.0000e-01|  5.0000e-01|   -5.722286|   -5.823249|   -6.451388|   -6.050494|   -5.995595|   -8.612607|    2.044448|
|         276|  6.1810e+00|  3.7820e-09|  7.6965e-01|  5.0000e-01|  5.0000e-01|  5.0000e-01|   -5.722827|   -5.823775|   -6.451642|   -6.050981|   -5.996006|   -8.612777|    2.044479|
|         277|  6.1803e+00|  3.7820e-09|  7.6965e-01|  5.0000e-01|  5.0000e-01|  5.0000e-01|   -5.723371|   -5.824304|   -6.451897|   -6.051471|   -5.996419|   -8.612947|    2.044510|
|         278|  6.1799e+00|  3.7820e-09|  7.6965e-01|  5.0000e-01|  5.0000e-01|  5.0000e-01|   -5.723918|   -5.824837|   -6.452153|   -6.051963|   -5.996835|   -8.613119|    2.044542|
|         279|  6.1795e+00|  3.7820e-09|  7.6965e-01|  5.0000e-01|  5.0000e-01|  5.0000e-01|   -5.724467|   -5.825373|   -6.452410|   -6.052457|   -5.997254|   -8.613291|    2.044574|
|         280|  6.1791e+00|  3.7820e-09|  7.6965e-01|  5.0000e-01|  5.0000e-01|  5.0000e-01|   -5.725019|   -5.825913|   -6.452668|   -6.052953|   -5.997676|   -8.613464|    2.044605|
|         281|  6.1785e+00|  3.7819e-09|  7.6965e-01|  5.0000e-01|  5.0000e-01|  5.0000e-01|   -5.725574|   -5.826456|   -6.452927|   -6.053451|   -5.998100|   -8.613638|    2.044637|
|         282|  6.1778e+00|  3.7819e-09|  7.6965e-01|  5.0000e-01|  5.0000e-01|  5.0000e-01|   -5.726131|   -5.827003|   -6.453188|   -6.053951|   -5.998526|   -8.613813|    2.044669|
|         283|  6.1771e+00|  3.7819e-09|  7.6965e-01|  5.0000e-01|  5.0000e-01|  5.0000e-01|   -5.726691|   -5.827553|   -6.453449|   -6.054453|   -5.998955|   -8.613988|    2.044702|
|         284|  6.1765e+00|  3.7819e-09|  7.6965e-01|  5.0000e-01|  5.0000e-01|  5.0000e-01|   -5.727253|   -5.828106|   -6.453710|   -6.054956|   -5.999387|   -8.614165|    2.044734|
|         285|  6.1759e+00|  3.7819e-09|  7.6965e-01|  5.0000e-01|  5.0000e-01|  5.0000e-01|   -5.727818|   -5.828663|   -6.453973|   -6.055462|   -5.999821|   -8.614342|    2.044767|
|         286|  6.1754e+00|  3.7818e-09|  7.6965e-01|  5.0000e-01|  5.0000e-01|  5.0000e-01|   -5.728386|   -5.829224|   -6.454236|   -6.055970|   -6.000257|   -8.614520|    2.044799|
|         287|  6.1750e+00|  3.7818e-09|  7.6965e-01|  5.0000e-01|  5.0000e-01|  5.0000e-01|   -5.728956|   -5.829788|   -6.454501|   -6.056480|   -6.000697|   -8.614698|    2.044832|
|         288|  6.1745e+00|  3.7818e-09|  7.6965e-01|  5.0000e-01|  5.0000e-01|  5.0000e-01|   -5.729529|   -5.830356|   -6.454767|   -6.056992|   -6.001139|   -8.614878|    2.044865|
|         289|  6.1745e+00|  3.7818e-09|  7.6965e-01|  5.0000e-01|  5.0000e-01|  5.0000e-01|   -5.730105|   -5.830927|   -6.455033|   -6.057507|   -6.001583|   -8.615058|    2.044899|
|         290|  6.1744e+00|  3.7818e-09|  7.6965e-01|  5.0000e-01|  5.0000e-01|  5.0000e-01|   -5.730683|   -5.831502|   -6.455300|   -6.058023|   -6.002030|   -8.615238|    2.044932|
|         291|  6.1742e+00|  3.7818e-09|  7.6965e-01|  5.0000e-01|  5.0000e-01|  5.0000e-01|   -5.731264|   -5.832080|   -6.455568|   -6.058541|   -6.002480|   -8.615420|    2.044965|
|         292|  6.1737e+00|  3.7817e-09|  7.6965e-01|  5.0000e-01|  5.0000e-01|  5.0000e-01|   -5.731848|   -5.832661|   -6.455837|   -6.059061|   -6.002932|   -8.615602|    2.044999|
|         293|  6.1737e+00|  3.7817e-09|  7.6965e-01|  5.0000e-01|  5.0000e-01|  5.0000e-01|   -5.732434|   -5.833246|   -6.456107|   -6.059583|   -6.003386|   -8.615784|    2.045033|
|         294|  6.1732e+00|  3.7817e-09|  7.6965e-01|  5.0000e-01|  5.0000e-01|  5.0000e-01|   -5.733022|   -5.833834|   -6.456377|   -6.060107|   -6.003844|   -8.615968|    2.045067|
|         295|  6.1727e+00|  3.7817e-09|  7.6965e-01|  5.0000e-01|  5.0000e-01|  5.0000e-01|   -5.733613|   -5.834425|   -6.456648|   -6.060633|   -6.004303|   -8.616152|    2.045101|
|         296|  6.1722e+00|  3.7817e-09|  7.6965e-01|  5.0000e-01|  5.0000e-01|  5.0000e-01|   -5.734207|   -5.835020|   -6.456920|   -6.061161|   -6.004765|   -8.616336|    2.045135|
|         297|  6.1717e+00|  3.7817e-09|  7.6965e-01|  5.0000e-01|  5.0000e-01|  5.0000e-01|   -5.734804|   -5.835619|   -6.457193|   -6.061691|   -6.005230|   -8.616521|    2.045170|
|         298|  6.1711e+00|  3.7816e-09|  7.6965e-01|  5.0000e-01|  5.0000e-01|  5.0000e-01|   -5.735403|   -5.836220|   -6.457466|   -6.062222|   -6.005698|   -8.616707|    2.045204|
|         299|  6.1704e+00|  3.7816e-09|  7.6965e-01|  5.0000e-01|  5.0000e-01|  5.0000e-01|   -5.736004|   -5.836826|   -6.457740|   -6.062756|   -6.006168|   -8.616893|    2.045239|
|         300|  6.1699e+00|  3.7816e-09|  7.6965e-01|  5.0000e-01|  5.0000e-01|  5.0000e-01|   -5.736609|   -5.837434|   -6.458015|   -6.063291|   -6.006641|   -8.617080|    2.045274|
+-----------------------------------------------------------------------+
|        File Writing Summary       |              Filename             |
+-----------------------------------------------------------------------+
|SU2 binary restart                 |restart_flow.dat                   |
|Paraview                           |flow.vtu                           |
|Paraview surface                   |surface_flow.vtu                   |
+-----------------------------------------------------------------------+
+-------------------------------------------------------------------------------------------------------------------------------------------------------------------------------------+
|  Inner_Iter|   Time(sec)|      Min DT|      Max DT|     Min CFL|     Max CFL|     Avg CFL|    rms[Rho]|   rms[RhoU]|   rms[RhoV]|   rms[RhoW]|   rms[RhoE]|     rms[nu]|          CD|
+-------------------------------------------------------------------------------------------------------------------------------------------------------------------------------------+
|         301|  6.2452e+00|  3.7816e-09|  7.6965e-01|  5.0000e-01|  5.0000e-01|  5.0000e-01|   -5.737216|   -5.838046|   -6.458291|   -6.063829|   -6.007116|   -8.617267|    2.045309|
|         302|  6.2480e+00|  3.7816e-09|  7.6965e-01|  5.0000e-01|  5.0000e-01|  5.0000e-01|   -5.737825|   -5.838661|   -6.458567|   -6.064367|   -6.007594|   -8.617455|    2.045344|
|         303|  6.2493e+00|  3.7815e-09|  7.6965e-01|  5.0000e-01|  5.0000e-01|  5.0000e-01|   -5.738436|   -5.839280|   -6.458844|   -6.064908|   -6.008074|   -8.617643|    2.045379|
|         304|  6.2515e+00|  3.7815e-09|  7.6965e-01|  5.0000e-01|  5.0000e-01|  5.0000e-01|   -5.739051|   -5.839902|   -6.459122|   -6.065451|   -6.008556|   -8.617832|    2.045414|
|         305|  6.2524e+00|  3.7815e-09|  7.6965e-01|  5.0000e-01|  5.0000e-01|  5.0000e-01|   -5.739667|   -5.840528|   -6.459401|   -6.065995|   -6.009041|   -8.618021|    2.045450|
|         306|  6.2525e+00|  3.7815e-09|  7.6965e-01|  5.0000e-01|  5.0000e-01|  5.0000e-01|   -5.740286|   -5.841156|   -6.459681|   -6.066542|   -6.009529|   -8.618211|    2.045486|
|         307|  6.2523e+00|  3.7815e-09|  7.6965e-01|  5.0000e-01|  5.0000e-01|  5.0000e-01|   -5.740907|   -5.841788|   -6.459961|   -6.067089|   -6.010018|   -8.618401|    2.045521|
|         308|  6.2520e+00|  3.7815e-09|  7.6965e-01|  5.0000e-01|  5.0000e-01|  5.0000e-01|   -5.741530|   -5.842423|   -6.460242|   -6.067638|   -6.010510|   -8.618591|    2.045557|
|         309|  6.2517e+00|  3.7814e-09|  7.6965e-01|  5.0000e-01|  5.0000e-01|  5.0000e-01|   -5.742156|   -5.843061|   -6.460523|   -6.068189|   -6.011003|   -8.618782|    2.045594|
|         310|  6.2508e+00|  3.7814e-09|  7.6965e-01|  5.0000e-01|  5.0000e-01|  5.0000e-01|   -5.742783|   -5.843702|   -6.460804|   -6.068741|   -6.011500|   -8.618973|    2.045630|
|         311|  6.2504e+00|  3.7814e-09|  7.6965e-01|  5.0000e-01|  5.0000e-01|  5.0000e-01|   -5.743413|   -5.844346|   -6.461086|   -6.069294|   -6.011998|   -8.619165|    2.045666|
|         312|  6.2499e+00|  3.7814e-09|  7.6965e-01|  5.0000e-01|  5.0000e-01|  5.0000e-01|   -5.744046|   -5.844994|   -6.461368|   -6.069850|   -6.012499|   -8.619357|    2.045703|
|         313|  6.2492e+00|  3.7814e-09|  7.6965e-01|  5.0000e-01|  5.0000e-01|  5.0000e-01|   -5.744680|   -5.845645|   -6.461651|   -6.070406|   -6.013002|   -8.619549|    2.045740|
|         314|  6.2486e+00|  3.7814e-09|  7.6965e-01|  5.0000e-01|  5.0000e-01|  5.0000e-01|   -5.745317|   -5.846299|   -6.461934|   -6.070965|   -6.013508|   -8.619741|    2.045776|
|         315|  6.2477e+00|  3.7813e-09|  7.6965e-01|  5.0000e-01|  5.0000e-01|  5.0000e-01|   -5.745956|   -5.846956|   -6.462218|   -6.071524|   -6.014015|   -8.619934|    2.045813|
|         316|  6.2471e+00|  3.7813e-09|  7.6965e-01|  5.0000e-01|  5.0000e-01|  5.0000e-01|   -5.746597|   -5.847617|   -6.462502|   -6.072085|   -6.014525|   -8.620127|    2.045850|
|         317|  6.2463e+00|  3.7813e-09|  7.6965e-01|  5.0000e-01|  5.0000e-01|  5.0000e-01|   -5.747240|   -5.848280|   -6.462787|   -6.072648|   -6.015037|   -8.620321|    2.045888|
|         318|  6.2463e+00|  3.7813e-09|  7.6965e-01|  5.0000e-01|  5.0000e-01|  5.0000e-01|   -5.747885|   -5.848947|   -6.463072|   -6.073212|   -6.015551|   -8.620514|    2.045925|
|         319|  6.2456e+00|  3.7813e-09|  7.6965e-01|  5.0000e-01|  5.0000e-01|  5.0000e-01|   -5.748533|   -5.849617|   -6.463357|   -6.073777|   -6.016067|   -8.620708|    2.045963|
|         320|  6.2449e+00|  3.7812e-09|  7.6965e-01|  5.0000e-01|  5.0000e-01|  5.0000e-01|   -5.749182|   -5.850290|   -6.463643|   -6.074343|   -6.016585|   -8.620902|    2.046000|
|         321|  6.2444e+00|  3.7812e-09|  7.6965e-01|  5.0000e-01|  5.0000e-01|  5.0000e-01|   -5.749834|   -5.850966|   -6.463929|   -6.074911|   -6.017106|   -8.621096|    2.046038|
|         322|  6.2438e+00|  3.7812e-09|  7.6965e-01|  5.0000e-01|  5.0000e-01|  5.0000e-01|   -5.750487|   -5.851645|   -6.464216|   -6.075479|   -6.017628|   -8.621290|    2.046076|
|         323|  6.2430e+00|  3.7812e-09|  7.6965e-01|  5.0000e-01|  5.0000e-01|  5.0000e-01|   -5.751143|   -5.852327|   -6.464502|   -6.076049|   -6.018153|   -8.621484|    2.046114|
|         324|  6.2434e+00|  3.7812e-09|  7.6965e-01|  5.0000e-01|  5.0000e-01|  5.0000e-01|   -5.751800|   -5.853012|   -6.464789|   -6.076620|   -6.018679|   -8.621679|    2.046152|
|         325|  6.2433e+00|  3.7812e-09|  7.6965e-01|  5.0000e-01|  5.0000e-01|  5.0000e-01|   -5.752459|   -5.853700|   -6.465076|   -6.077192|   -6.019207|   -8.621873|    2.046191|
|         326|  6.2424e+00|  3.7811e-09|  7.6965e-01|  5.0000e-01|  5.0000e-01|  5.0000e-01|   -5.753120|   -5.854392|   -6.465363|   -6.077765|   -6.019738|   -8.622068|    2.046229|
|         327|  6.2423e+00|  3.7811e-09|  7.6965e-01|  5.0000e-01|  5.0000e-01|  5.0000e-01|   -5.753783|   -5.855086|   -6.465651|   -6.078339|   -6.020270|   -8.622263|    2.046268|
|         328|  6.2420e+00|  3.7811e-09|  7.6965e-01|  5.0000e-01|  5.0000e-01|  5.0000e-01|   -5.754448|   -5.855783|   -6.465939|   -6.078914|   -6.020804|   -8.622458|    2.046306|
|         329|  6.2415e+00|  3.7811e-09|  7.6965e-01|  5.0000e-01|  5.0000e-01|  5.0000e-01|   -5.755114|   -5.856483|   -6.466227|   -6.079490|   -6.021341|   -8.622653|    2.046345|
|         330|  6.2409e+00|  3.7811e-09|  7.6965e-01|  5.0000e-01|  5.0000e-01|  5.0000e-01|   -5.755783|   -5.857187|   -6.466516|   -6.080067|   -6.021879|   -8.622848|    2.046384|
|         331|  6.2404e+00|  3.7810e-09|  7.6965e-01|  5.0000e-01|  5.0000e-01|  5.0000e-01|   -5.756454|   -5.857893|   -6.466805|   -6.080645|   -6.022419|   -8.623043|    2.046423|
|         332|  6.2398e+00|  3.7810e-09|  7.6965e-01|  5.0000e-01|  5.0000e-01|  5.0000e-01|   -5.757126|   -5.858603|   -6.467094|   -6.081225|   -6.022962|   -8.623238|    2.046463|
|         333|  6.2390e+00|  3.7810e-09|  7.6965e-01|  5.0000e-01|  5.0000e-01|  5.0000e-01|   -5.757800|   -5.859315|   -6.467384|   -6.081806|   -6.023507|   -8.623432|    2.046502|
|         334|  6.2383e+00|  3.7810e-09|  7.6965e-01|  5.0000e-01|  5.0000e-01|  5.0000e-01|   -5.758476|   -5.860031|   -6.467673|   -6.082387|   -6.024053|   -8.623627|    2.046541|
|         335|  6.2375e+00|  3.7810e-09|  7.6965e-01|  5.0000e-01|  5.0000e-01|  5.0000e-01|   -5.759154|   -5.860749|   -6.467963|   -6.082970|   -6.024602|   -8.623822|    2.046581|
|         336|  6.2371e+00|  3.7810e-09|  7.6965e-01|  5.0000e-01|  5.0000e-01|  5.0000e-01|   -5.759834|   -5.861471|   -6.468253|   -6.083554|   -6.025153|   -8.624017|    2.046621|
|         337|  6.2367e+00|  3.7809e-09|  7.6965e-01|  5.0000e-01|  5.0000e-01|  5.0000e-01|   -5.760515|   -5.862195|   -6.468543|   -6.084139|   -6.025705|   -8.624211|    2.046661|
|         338|  6.2361e+00|  3.7809e-09|  7.6965e-01|  5.0000e-01|  5.0000e-01|  5.0000e-01|   -5.761198|   -5.862922|   -6.468833|   -6.084724|   -6.026259|   -8.624406|    2.046701|
|         339|  6.2356e+00|  3.7809e-09|  7.6965e-01|  5.0000e-01|  5.0000e-01|  5.0000e-01|   -5.761882|   -5.863652|   -6.469124|   -6.085310|   -6.026815|   -8.624600|    2.046741|
|         340|  6.2350e+00|  3.7809e-09|  7.6965e-01|  5.0000e-01|  5.0000e-01|  5.0000e-01|   -5.762568|   -5.864385|   -6.469414|   -6.085896|   -6.027373|   -8.624794|    2.046781|
|         341|  6.2342e+00|  3.7809e-09|  7.6965e-01|  5.0000e-01|  5.0000e-01|  5.0000e-01|   -5.763255|   -5.865121|   -6.469704|   -6.086483|   -6.027932|   -8.624988|    2.046822|
|         342|  6.2336e+00|  3.7808e-09|  7.6965e-01|  5.0000e-01|  5.0000e-01|  5.0000e-01|   -5.763944|   -5.865859|   -6.469995|   -6.087071|   -6.028494|   -8.625182|    2.046862|
|         343|  6.2333e+00|  3.7808e-09|  7.6965e-01|  5.0000e-01|  5.0000e-01|  5.0000e-01|   -5.764634|   -5.866600|   -6.470286|   -6.087660|   -6.029057|   -8.625376|    2.046903|
|         344|  6.2332e+00|  3.7808e-09|  7.6965e-01|  5.0000e-01|  5.0000e-01|  5.0000e-01|   -5.765326|   -5.867344|   -6.470577|   -6.088248|   -6.029622|   -8.625569|    2.046944|
|         345|  6.2333e+00|  3.7808e-09|  7.6965e-01|  5.0000e-01|  5.0000e-01|  5.0000e-01|   -5.766018|   -5.868090|   -6.470868|   -6.088838|   -6.030188|   -8.625762|    2.046985|
|         346|  6.2328e+00|  3.7808e-09|  7.6965e-01|  5.0000e-01|  5.0000e-01|  5.0000e-01|   -5.766712|   -5.868839|   -6.471159|   -6.089427|   -6.030756|   -8.625955|    2.047026|
|         347|  6.2323e+00|  3.7808e-09|  7.6965e-01|  5.0000e-01|  5.0000e-01|  5.0000e-01|   -5.767407|   -5.869590|   -6.471450|   -6.090017|   -6.031325|   -8.626147|    2.047067|
|         348|  6.2317e+00|  3.7807e-09|  7.6965e-01|  5.0000e-01|  5.0000e-01|  5.0000e-01|   -5.768103|   -5.870344|   -6.471742|   -6.090607|   -6.031895|   -8.626340|    2.047108|
|         349|  6.2310e+00|  3.7807e-09|  7.6965e-01|  5.0000e-01|  5.0000e-01|  5.0000e-01|   -5.768800|   -5.871100|   -6.472033|   -6.091197|   -6.032468|   -8.626531|    2.047149|
[...]
|       10684|  5.9559e+00|  3.5948e-09|  7.6965e-01|  5.0000e-01|  5.0000e-01|  5.0000e-01|   -6.023698|   -6.127813|   -6.682922|   -6.351998|   -6.282290|   -8.778593|    2.056202|
|       10685|  5.9559e+00|  3.5948e-09|  7.6965e-01|  5.0000e-01|  5.0000e-01|  5.0000e-01|   -6.024216|   -6.128504|   -6.683128|   -6.352384|   -6.282804|   -8.778600|    2.056175|
|       10686|  5.9559e+00|  3.5948e-09|  7.6965e-01|  5.0000e-01|  5.0000e-01|  5.0000e-01|   -6.024729|   -6.129191|   -6.683332|   -6.352767|   -6.283316|   -8.778606|    2.056148|
|       10687|  5.9559e+00|  3.5948e-09|  7.6965e-01|  5.0000e-01|  5.0000e-01|  5.0000e-01|   -6.025238|   -6.129876|   -6.683535|   -6.353146|   -6.283826|   -8.778612|    2.056120|
|       10688|  5.9559e+00|  3.5948e-09|  7.6965e-01|  5.0000e-01|  5.0000e-01|  5.0000e-01|   -6.025744|   -6.130558|   -6.683735|   -6.353522|   -6.284334|   -8.778617|    2.056093|
|       10689|  5.9558e+00|  3.5947e-09|  7.6965e-01|  5.0000e-01|  5.0000e-01|  5.0000e-01|   -6.026245|   -6.131238|   -6.683934|   -6.353894|   -6.284840|   -8.778621|    2.056066|
|       10690|  5.9558e+00|  3.5947e-09|  7.6965e-01|  5.0000e-01|  5.0000e-01|  5.0000e-01|   -6.026743|   -6.131914|   -6.684132|   -6.354263|   -6.285343|   -8.778626|    2.056039|
|       10691|  5.9558e+00|  3.5947e-09|  7.6965e-01|  5.0000e-01|  5.0000e-01|  5.0000e-01|   -6.027237|   -6.132587|   -6.684327|   -6.354629|   -6.285845|   -8.778629|    2.056011|
|       10692|  5.9558e+00|  3.5947e-09|  7.6965e-01|  5.0000e-01|  5.0000e-01|  5.0000e-01|   -6.027726|   -6.133256|   -6.684521|   -6.354991|   -6.286343|   -8.778633|    2.055984|
|       10693|  5.9558e+00|  3.5947e-09|  7.6965e-01|  5.0000e-01|  5.0000e-01|  5.0000e-01|   -6.028211|   -6.133923|   -6.684714|   -6.355349|   -6.286840|   -8.778636|    2.055957|
|       10694|  5.9558e+00|  3.5946e-09|  7.6965e-01|  5.0000e-01|  5.0000e-01|  5.0000e-01|   -6.028693|   -6.134586|   -6.684904|   -6.355704|   -6.287334|   -8.778638|    2.055929|
|       10695|  5.9558e+00|  3.5946e-09|  7.6965e-01|  5.0000e-01|  5.0000e-01|  5.0000e-01|   -6.029169|   -6.135246|   -6.685093|   -6.356056|   -6.287826|   -8.778640|    2.055902|
|       10696|  5.9558e+00|  3.5946e-09|  7.6965e-01|  5.0000e-01|  5.0000e-01|  5.0000e-01|   -6.029641|   -6.135902|   -6.685280|   -6.356403|   -6.288315|   -8.778642|    2.055875|
|       10697|  5.9557e+00|  3.5946e-09|  7.6965e-01|  5.0000e-01|  5.0000e-01|  5.0000e-01|   -6.030109|   -6.136554|   -6.685465|   -6.356747|   -6.288801|   -8.778643|    2.055847|
|       10698|  5.9557e+00|  3.5946e-09|  7.6965e-01|  5.0000e-01|  5.0000e-01|  5.0000e-01|   -6.030572|   -6.137202|   -6.685649|   -6.357086|   -6.289285|   -8.778644|    2.055820|
|       10699|  5.9557e+00|  3.5946e-09|  7.6965e-01|  5.0000e-01|  5.0000e-01|  5.0000e-01|   -6.031031|   -6.137847|   -6.685830|   -6.357422|   -6.289766|   -8.778645|    2.055792|
|       10700|  5.9557e+00|  3.5945e-09|  7.6965e-01|  5.0000e-01|  5.0000e-01|  5.0000e-01|   -6.031485|   -6.138488|   -6.686010|   -6.357755|   -6.290245|   -8.778645|    2.055765|
|       10701|  5.9557e+00|  3.5945e-09|  7.6965e-01|  5.0000e-01|  5.0000e-01|  5.0000e-01|   -6.031935|   -6.139126|   -6.686189|   -6.358083|   -6.290722|   -8.778644|    2.055737|
|       10702|  5.9557e+00|  3.5945e-09|  7.6965e-01|  5.0000e-01|  5.0000e-01|  5.0000e-01|   -6.032381|   -6.139759|   -6.686366|   -6.358408|   -6.291195|   -8.778643|    2.055710|
|       10703|  5.9557e+00|  3.5945e-09|  7.6965e-01|  5.0000e-01|  5.0000e-01|  5.0000e-01|   -6.032821|   -6.140388|   -6.686542|   -6.358729|   -6.291666|   -8.778642|    2.055682|
|       10704|  5.9557e+00|  3.5945e-09|  7.6965e-01|  5.0000e-01|  5.0000e-01|  5.0000e-01|   -6.033257|   -6.141014|   -6.686715|   -6.359046|   -6.292134|   -8.778641|    2.055655|
|       10705|  5.9556e+00|  3.5944e-09|  7.6965e-01|  5.0000e-01|  5.0000e-01|  5.0000e-01|   -6.033687|   -6.141634|   -6.686886|   -6.359358|   -6.292598|   -8.778639|    2.055627|
|       10706|  5.9556e+00|  3.5944e-09|  7.6965e-01|  5.0000e-01|  5.0000e-01|  5.0000e-01|   -6.034112|   -6.142251|   -6.687056|   -6.359666|   -6.293060|   -8.778636|    2.055599|
|       10707|  5.9556e+00|  3.5944e-09|  7.6965e-01|  5.0000e-01|  5.0000e-01|  5.0000e-01|   -6.034533|   -6.142863|   -6.687223|   -6.359971|   -6.293518|   -8.778634|    2.055572|
|       10708|  5.9556e+00|  3.5944e-09|  7.6965e-01|  5.0000e-01|  5.0000e-01|  5.0000e-01|   -6.034948|   -6.143470|   -6.687389|   -6.360271|   -6.293973|   -8.778631|    2.055544|
|       10709|  5.9556e+00|  3.5944e-09|  7.6965e-01|  5.0000e-01|  5.0000e-01|  5.0000e-01|   -6.035357|   -6.144073|   -6.687552|   -6.360567|   -6.294425|   -8.778628|    2.055517|
|       10710|  5.9556e+00|  3.5944e-09|  7.6965e-01|  5.0000e-01|  5.0000e-01|  5.0000e-01|   -6.035761|   -6.144671|   -6.687714|   -6.360858|   -6.294873|   -8.778624|    2.055489|
|       10711|  5.9556e+00|  3.5943e-09|  7.6965e-01|  5.0000e-01|  5.0000e-01|  5.0000e-01|   -6.036160|   -6.145264|   -6.687873|   -6.361145|   -6.295318|   -8.778620|    2.055461|
|       10712|  5.9555e+00|  3.5943e-09|  7.6965e-01|  5.0000e-01|  5.0000e-01|  5.0000e-01|   -6.036554|   -6.145852|   -6.688032|   -6.361428|   -6.295760|   -8.778616|    2.055434|
|       10713|  5.9555e+00|  3.5943e-09|  7.6965e-01|  5.0000e-01|  5.0000e-01|  5.0000e-01|   -6.036943|   -6.146436|   -6.688189|   -6.361707|   -6.296199|   -8.778611|    2.055406|
|       10714|  5.9555e+00|  3.5943e-09|  7.6965e-01|  5.0000e-01|  5.0000e-01|  5.0000e-01|   -6.037326|   -6.147014|   -6.688344|   -6.361981|   -6.296634|   -8.778607|    2.055378|
|       10715|  5.9555e+00|  3.5943e-09|  7.6965e-01|  5.0000e-01|  5.0000e-01|  5.0000e-01|   -6.037704|   -6.147588|   -6.688497|   -6.362251|   -6.297066|   -8.778602|    2.055351|
|       10716|  5.9555e+00|  3.5942e-09|  7.6965e-01|  5.0000e-01|  5.0000e-01|  5.0000e-01|   -6.038076|   -6.148156|   -6.688648|   -6.362517|   -6.297494|   -8.778596|    2.055323|
|       10717|  5.9555e+00|  3.5942e-09|  7.6965e-01|  5.0000e-01|  5.0000e-01|  5.0000e-01|   -6.038442|   -6.148719|   -6.688796|   -6.362777|   -6.297918|   -8.778591|    2.055295|
|       10718|  5.9554e+00|  3.5942e-09|  7.6965e-01|  5.0000e-01|  5.0000e-01|  5.0000e-01|   -6.038802|   -6.149277|   -6.688943|   -6.363033|   -6.298339|   -8.778585|    2.055267|
|       10719|  5.9554e+00|  3.5942e-09|  7.6965e-01|  5.0000e-01|  5.0000e-01|  5.0000e-01|   -6.039157|   -6.149829|   -6.689087|   -6.363285|   -6.298756|   -8.778579|    2.055240|
|       10720|  5.9554e+00|  3.5942e-09|  7.6965e-01|  5.0000e-01|  5.0000e-01|  5.0000e-01|   -6.039505|   -6.150376|   -6.689230|   -6.363532|   -6.299169|   -8.778572|    2.055212|
|       10721|  5.9554e+00|  3.5942e-09|  7.6965e-01|  5.0000e-01|  5.0000e-01|  5.0000e-01|   -6.039848|   -6.150916|   -6.689370|   -6.363774|   -6.299578|   -8.778566|    2.055184|
|       10722|  5.9554e+00|  3.5941e-09|  7.6965e-01|  5.0000e-01|  5.0000e-01|  5.0000e-01|   -6.040185|   -6.151452|   -6.689508|   -6.364011|   -6.299983|   -8.778559|    2.055156|
|       10723|  5.9553e+00|  3.5941e-09|  7.6965e-01|  5.0000e-01|  5.0000e-01|  5.0000e-01|   -6.040515|   -6.151981|   -6.689644|   -6.364244|   -6.300384|   -8.778552|    2.055128|
|       10724|  5.9553e+00|  3.5941e-09|  7.6965e-01|  5.0000e-01|  5.0000e-01|  5.0000e-01|   -6.040840|   -6.152504|   -6.689778|   -6.364472|   -6.300782|   -8.778544|    2.055101|
|       10725|  5.9553e+00|  3.5941e-09|  7.6965e-01|  5.0000e-01|  5.0000e-01|  5.0000e-01|   -6.041159|   -6.153022|   -6.689910|   -6.364695|   -6.301175|   -8.778537|    2.055073|
|       10726|  5.9553e+00|  3.5941e-09|  7.6965e-01|  5.0000e-01|  5.0000e-01|  5.0000e-01|   -6.041471|   -6.153533|   -6.690040|   -6.364913|   -6.301564|   -8.778529|    2.055045|
|       10727|  5.9552e+00|  3.5940e-09|  7.6965e-01|  5.0000e-01|  5.0000e-01|  5.0000e-01|   -6.041777|   -6.154039|   -6.690167|   -6.365126|   -6.301949|   -8.778521|    2.055017|
|       10728|  5.9552e+00|  3.5940e-09|  7.6965e-01|  5.0000e-01|  5.0000e-01|  5.0000e-01|   -6.042077|   -6.154538|   -6.690293|   -6.365335|   -6.302329|   -8.778513|    2.054989|
|       10729|  5.9552e+00|  3.5940e-09|  7.6965e-01|  5.0000e-01|  5.0000e-01|  5.0000e-01|   -6.042371|   -6.155031|   -6.690416|   -6.365538|   -6.302706|   -8.778505|    2.054961|
|       10730|  5.9552e+00|  3.5940e-09|  7.6965e-01|  5.0000e-01|  5.0000e-01|  5.0000e-01|   -6.042658|   -6.155518|   -6.690538|   -6.365737|   -6.303078|   -8.778496|    2.054934|
|       10731|  5.9551e+00|  3.5940e-09|  7.6965e-01|  5.0000e-01|  5.0000e-01|  5.0000e-01|   -6.042939|   -6.155998|   -6.690657|   -6.365930|   -6.303446|   -8.778488|    2.054906|
|       10732|  5.9551e+00|  3.5940e-09|  7.6965e-01|  5.0000e-01|  5.0000e-01|  5.0000e-01|   -6.043214|   -6.156472|   -6.690774|   -6.366119|   -6.303809|   -8.778479|    2.054878|
|       10733|  5.9551e+00|  3.5939e-09|  7.6965e-01|  5.0000e-01|  5.0000e-01|  5.0000e-01|   -6.043482|   -6.156940|   -6.690890|   -6.366303|   -6.304169|   -8.778470|    2.054850|
|       10734|  5.9551e+00|  3.5939e-09|  7.6965e-01|  5.0000e-01|  5.0000e-01|  5.0000e-01|   -6.043744|   -6.157401|   -6.691003|   -6.366483|   -6.304524|   -8.778461|    2.054822|
|       10735|  5.9550e+00|  3.5939e-09|  7.6965e-01|  5.0000e-01|  5.0000e-01|  5.0000e-01|   -6.044000|   -6.157855|   -6.691115|   -6.366657|   -6.304875|   -8.778452|    2.054794|
|       10736|  5.9550e+00|  3.5939e-09|  7.6965e-01|  5.0000e-01|  5.0000e-01|  5.0000e-01|   -6.044250|   -6.158303|   -6.691225|   -6.366826|   -6.305221|   -8.778443|    2.054766|
|       10737|  5.9550e+00|  3.5939e-09|  7.6965e-01|  5.0000e-01|  5.0000e-01|  5.0000e-01|   -6.044493|   -6.158744|   -6.691332|   -6.366991|   -6.305563|   -8.778433|    2.054738|
|       10738|  5.9550e+00|  3.5938e-09|  7.6965e-01|  5.0000e-01|  5.0000e-01|  5.0000e-01|   -6.044729|   -6.159178|   -6.691438|   -6.367150|   -6.305900|   -8.778424|    2.054711|
|       10739|  5.9550e+00|  3.5938e-09|  7.6965e-01|  5.0000e-01|  5.0000e-01|  5.0000e-01|   -6.044959|   -6.159605|   -6.691541|   -6.367304|   -6.306233|   -8.778415|    2.054683|
|       10740|  5.9550e+00|  3.5938e-09|  7.6965e-01|  5.0000e-01|  5.0000e-01|  5.0000e-01|   -6.045183|   -6.160026|   -6.691642|   -6.367454|   -6.306561|   -8.778405|    2.054655|
|       10741|  5.9549e+00|  3.5938e-09|  7.6965e-01|  5.0000e-01|  5.0000e-01|  5.0000e-01|   -6.045399|   -6.160439|   -6.691741|   -6.367598|   -6.306884|   -8.778395|    2.054627|
|       10742|  5.9549e+00|  3.5938e-09|  7.6965e-01|  5.0000e-01|  5.0000e-01|  5.0000e-01|   -6.045609|   -6.160845|   -6.691838|   -6.367737|   -6.307203|   -8.778385|    2.054599|
|       10743|  5.9549e+00|  3.5938e-09|  7.6965e-01|  5.0000e-01|  5.0000e-01|  5.0000e-01|   -6.045812|   -6.161244|   -6.691932|   -6.367870|   -6.307517|   -8.778376|    2.054571|
|       10744|  5.9549e+00|  3.5937e-09|  7.6965e-01|  5.0000e-01|  5.0000e-01|  5.0000e-01|   -6.046009|   -6.161637|   -6.692025|   -6.367999|   -6.307826|   -8.778366|    2.054543|
|       10745|  5.9549e+00|  3.5937e-09|  7.6965e-01|  5.0000e-01|  5.0000e-01|  5.0000e-01|   -6.046199|   -6.162021|   -6.692116|   -6.368123|   -6.308130|   -8.778356|    2.054515|
|       10746|  5.9548e+00|  3.5937e-09|  7.6965e-01|  5.0000e-01|  5.0000e-01|  5.0000e-01|   -6.046382|   -6.162399|   -6.692205|   -6.368241|   -6.308430|   -8.778346|    2.054487|
|       10747|  5.9548e+00|  3.5937e-09|  7.6965e-01|  5.0000e-01|  5.0000e-01|  5.0000e-01|   -6.046559|   -6.162769|   -6.692291|   -6.368355|   -6.308725|   -8.778336|    2.054459|
|       10748|  5.9548e+00|  3.5937e-09|  7.6965e-01|  5.0000e-01|  5.0000e-01|  5.0000e-01|   -6.046728|   -6.163132|   -6.692375|   -6.368463|   -6.309015|   -8.778326|    2.054431|
|       10749|  5.9548e+00|  3.5936e-09|  7.6965e-01|  5.0000e-01|  5.0000e-01|  5.0000e-01|   -6.046891|   -6.163487|   -6.692458|   -6.368565|   -6.309299|   -8.778316|    2.054403|
|       10750|  5.9547e+00|  3.5936e-09|  7.6965e-01|  5.0000e-01|  5.0000e-01|  5.0000e-01|   -6.047047|   -6.163835|   -6.692537|   -6.368663|   -6.309579|   -8.778305|    2.054375|
|       10751|  5.9547e+00|  3.5936e-09|  7.6965e-01|  5.0000e-01|  5.0000e-01|  5.0000e-01|   -6.047196|   -6.164176|   -6.692615|   -6.368756|   -6.309854|   -8.778295|    2.054347|
|       10752|  5.9547e+00|  3.5936e-09|  7.6965e-01|  5.0000e-01|  5.0000e-01|  5.0000e-01|   -6.047339|   -6.164508|   -6.692691|   -6.368843|   -6.310124|   -8.778285|    2.054320|
|       10753|  5.9547e+00|  3.5936e-09|  7.6965e-01|  5.0000e-01|  5.0000e-01|  5.0000e-01|   -6.047474|   -6.164833|   -6.692766|   -6.368925|   -6.310390|   -8.778275|    2.054292|
|       10754|  5.9547e+00|  3.5936e-09|  7.6965e-01|  5.0000e-01|  5.0000e-01|  5.0000e-01|   -6.047603|   -6.165151|   -6.692838|   -6.369002|   -6.310650|   -8.778265|    2.054264|
|       10755|  5.9547e+00|  3.5935e-09|  7.6965e-01|  5.0000e-01|  5.0000e-01|  5.0000e-01|   -6.047725|   -6.165460|   -6.692907|   -6.369074|   -6.310905|   -8.778255|    2.054236|
|       10756|  5.9547e+00|  3.5935e-09|  7.6965e-01|  5.0000e-01|  5.0000e-01|  5.0000e-01|   -6.047840|   -6.165762|   -6.692975|   -6.369140|   -6.311154|   -8.778245|    2.054208|
|       10757|  5.9547e+00|  3.5935e-09|  7.6965e-01|  5.0000e-01|  5.0000e-01|  5.0000e-01|   -6.047948|   -6.166056|   -6.693040|   -6.369201|   -6.311399|   -8.778235|    2.054180|
|       10758|  5.9547e+00|  3.5935e-09|  7.6965e-01|  5.0000e-01|  5.0000e-01|  5.0000e-01|   -6.048049|   -6.166342|   -6.693103|   -6.369257|   -6.311638|   -8.778225|    2.054152|
|       10759|  5.9546e+00|  3.5935e-09|  7.6965e-01|  5.0000e-01|  5.0000e-01|  5.0000e-01|   -6.048143|   -6.166620|   -6.693164|   -6.369307|   -6.311872|   -8.778215|    2.054124|
|       10760|  5.9546e+00|  3.5934e-09|  7.6965e-01|  5.0000e-01|  5.0000e-01|  5.0000e-01|   -6.048230|   -6.166890|   -6.693222|   -6.369352|   -6.312101|   -8.778205|    2.054096|
|       10761|  5.9546e+00|  3.5934e-09|  7.6965e-01|  5.0000e-01|  5.0000e-01|  5.0000e-01|   -6.048309|   -6.167152|   -6.693279|   -6.369391|   -6.312324|   -8.778195|    2.054068|
|       10762|  5.9546e+00|  3.5934e-09|  7.6965e-01|  5.0000e-01|  5.0000e-01|  5.0000e-01|   -6.048382|   -6.167406|   -6.693333|   -6.369425|   -6.312542|   -8.778185|    2.054040|
|       10763|  5.9545e+00|  3.5934e-09|  7.6965e-01|  5.0000e-01|  5.0000e-01|  5.0000e-01|   -6.048448|   -6.167652|   -6.693385|   -6.369454|   -6.312754|   -8.778176|    2.054012|
|       10764|  5.9545e+00|  3.5934e-09|  7.6965e-01|  5.0000e-01|  5.0000e-01|  5.0000e-01|   -6.048507|   -6.167890|   -6.693435|   -6.369478|   -6.312961|   -8.778166|    2.053985|
|       10765|  5.9545e+00|  3.5934e-09|  7.6965e-01|  5.0000e-01|  5.0000e-01|  5.0000e-01|   -6.048558|   -6.168120|   -6.693482|   -6.369496|   -6.313163|   -8.778156|    2.053957|
|       10766|  5.9545e+00|  3.5933e-09|  7.6965e-01|  5.0000e-01|  5.0000e-01|  5.0000e-01|   -6.048603|   -6.168341|   -6.693527|   -6.369509|   -6.313359|   -8.778147|    2.053929|
|       10767|  5.9544e+00|  3.5933e-09|  7.6965e-01|  5.0000e-01|  5.0000e-01|  5.0000e-01|   -6.048640|   -6.168554|   -6.693570|   -6.369517|   -6.313549|   -8.778137|    2.053901|
|       10768|  5.9544e+00|  3.5933e-09|  7.6965e-01|  5.0000e-01|  5.0000e-01|  5.0000e-01|   -6.048670|   -6.168759|   -6.693610|   -6.369519|   -6.313734|   -8.778128|    2.053873|
|       10769|  5.9544e+00|  3.5933e-09|  7.6965e-01|  5.0000e-01|  5.0000e-01|  5.0000e-01|   -6.048693|   -6.168955|   -6.693649|   -6.369516|   -6.313913|   -8.778119|    2.053845|
|       10770|  5.9544e+00|  3.5933e-09|  7.6965e-01|  5.0000e-01|  5.0000e-01|  5.0000e-01|   -6.048710|   -6.169144|   -6.693685|   -6.369509|   -6.314088|   -8.778110|    2.053817|
|       10771|  5.9544e+00|  3.5932e-09|  7.6965e-01|  5.0000e-01|  5.0000e-01|  5.0000e-01|   -6.048719|   -6.169324|   -6.693720|   -6.369496|   -6.314256|   -8.778101|    2.053789|
|       10772|  5.9543e+00|  3.5932e-09|  7.6965e-01|  5.0000e-01|  5.0000e-01|  5.0000e-01|   -6.048722|   -6.169495|   -6.693752|   -6.369478|   -6.314420|   -8.778092|    2.053762|
|       10773|  5.9543e+00|  3.5932e-09|  7.6965e-01|  5.0000e-01|  5.0000e-01|  5.0000e-01|   -6.048719|   -6.169659|   -6.693782|   -6.369455|   -6.314579|   -8.778083|    2.053734|
|       10774|  5.9543e+00|  3.5932e-09|  7.6965e-01|  5.0000e-01|  5.0000e-01|  5.0000e-01|   -6.048708|   -6.169814|   -6.693810|   -6.369427|   -6.314731|   -8.778074|    2.053706|
|       10775|  5.9543e+00|  3.5932e-09|  7.6965e-01|  5.0000e-01|  5.0000e-01|  5.0000e-01|   -6.048690|   -6.169961|   -6.693836|   -6.369394|   -6.314879|   -8.778065|    2.053678|
|       10776|  5.9542e+00|  3.5932e-09|  7.6965e-01|  5.0000e-01|  5.0000e-01|  5.0000e-01|   -6.048666|   -6.170099|   -6.693859|   -6.369356|   -6.315020|   -8.778057|    2.053650|
|       10777|  5.9542e+00|  3.5931e-09|  7.6965e-01|  5.0000e-01|  5.0000e-01|  5.0000e-01|   -6.048634|   -6.170228|   -6.693880|   -6.369312|   -6.315156|   -8.778048|    2.053623|
|       10778|  5.9542e+00|  3.5931e-09|  7.6965e-01|  5.0000e-01|  5.0000e-01|  5.0000e-01|   -6.048595|   -6.170350|   -6.693899|   -6.369263|   -6.315286|   -8.778040|    2.053595|
|       10779|  5.9542e+00|  3.5931e-09|  7.6965e-01|  5.0000e-01|  5.0000e-01|  5.0000e-01|   -6.048549|   -6.170462|   -6.693916|   -6.369208|   -6.315410|   -8.778032|    2.053567|
|       10780|  5.9542e+00|  3.5931e-09|  7.6965e-01|  5.0000e-01|  5.0000e-01|  5.0000e-01|   -6.048496|   -6.170566|   -6.693931|   -6.369148|   -6.315528|   -8.778024|    2.053539|

scontrol show job 1157291
JobId=1157291 JobName=m6_aoa24
   UserId=anthonyy(3152141) GroupId=anthonyy(3152141) MCS_label=N/A
   Priority=545563 Nice=0 Account=rrg-jphickey QOS=normal
   JobState=COMPLETING Reason=TimeLimit Dependency=(null)
   Requeue=0 Restarts=0 BatchFlag=1 Reboot=0 ExitCode=0:15
   RunTime=18:00:08 TimeLimit=18:00:00 TimeMin=N/A
   SubmitTime=2026-03-09T21:09:43 EligibleTime=2026-03-09T21:09:43
   AccrueTime=2026-03-09T21:09:43
   StartTime=2026-03-09T21:13:23 EndTime=2026-03-10T15:13:31 Deadline=N/A
   SuspendTime=None SecsPreSuspend=0 LastSchedEval=2026-03-09T21:13:23 Scheduler=Backfill
   Partition=compute AllocNode:Sid=tri-login06:1483502
   ReqNodeList=(null) ExcNodeList=(null)
   NodeList=tri[0975,0997]
   BatchHost=tri0975
   NumNodes=2 NumCPUs=384 NumTasks=128 CPUs/Task=1 ReqB:S:C:T=0:0:*:*
   ReqTRES=cpu=128,mem=1534000M,node=2,billing=128
   AllocTRES=cpu=384,mem=1534000M,node=2,billing=384
   Socks/Node=* NtasksPerN:B:S:C=64:0:*:* CoreSpec=*
   MinCPUsNode=64 MinMemoryNode=0 MinTmpDiskNode=0
   Features=(null) DelayBoot=00:00:00
   OverSubscribe=NO Contiguous=0 Licenses=(null) Network=(null)
   Command=/scratch/anthonyy/reentry/orion/cases/m6_aoa24/run.sh
   WorkDir=/scratch/anthonyy/reentry/orion/cases/m6_aoa24
   Comment=/opt/slurm/bin/sbatch --export=NONE --get-user-env=L run.sh 
   StdErr=/scratch/anthonyy/reentry/orion/cases/m6_aoa24/orion_1157291.err
   StdIn=/dev/null
   StdOut=/scratch/anthonyy/reentry/orion/cases/m6_aoa24/orion_1157291.out
   TresPerTask=cpu=1
   

sacct -j 1157291
JobID           JobName    Account    Elapsed  MaxVMSize     MaxRSS  SystemCPU    UserCPU ExitCode 
------------ ---------- ---------- ---------- ---------- ---------- ---------- ---------- -------- 
1157291        m6_aoa24 rrg-jphic+   18:00:08                        00:00.129  00:00.590      0:0 
1157291.bat+      batch rrg-jphic+   18:00:09          0     13560K  00:00.129  00:00.590     0:15 
1157291.ext+     extern rrg-jphic+   18:00:08                         00:00:00   00:00:00      0:0 
1157291.0       SU2_CFD rrg-jphic+   18:00:01                         00:00:00   00:00:00      0:0 

