Nodes: tri[0297-0298]
Tasks: 128
NPN:   64

-------------------------------------------------------------------------
|    ___ _   _ ___                                                      |
|   / __| | | |_  )   Release 7.5.1 "Blackbird"                         |
|   \__ \ |_| |/ /                                                      |
|   |___/\___//___|   Suite (Computational Fluid Dynamics Code)         |
|                                                                       |
-------------------------------------------------------------------------
| SU2 Project Website: https://su2code.github.io                        |
|                                                                       |
| The SU2 Project is maintained by the SU2 Foundation                   |
| (http://su2foundation.org)                                            |
-------------------------------------------------------------------------
| Copyright 2012-2023, SU2 Contributors                                 |
|                                                                       |
| SU2 is free software; you can redistribute it and/or                  |
| modify it under the terms of the GNU Lesser General Public            |
| License as published by the Free Software Foundation; either          |
| version 2.1 of the License, or (at your option) any later version.    |
|                                                                       |
| SU2 is distributed in the hope that it will be useful,                |
| but WITHOUT ANY WARRANTY; without even the implied warranty of        |
| MERCHANTABILITY or FITNESS FOR A PARTICULAR PURPOSE. See the GNU      |
| Lesser General Public License for more details.                       |
|                                                                       |
| You should have received a copy of the GNU Lesser General Public      |
| License along with SU2. If not, see <http://www.gnu.org/licenses/>.   |
-------------------------------------------------------------------------

Parsing config file for zone 0

----------------- Physical Case Definition ( Zone 0 ) -------------------
Compressible RANS equations.
Turbulence model: Spalart-Allmaras-noft2
Hybrid RANS/LES: No Hybrid RANS/LES
Mach number: 6.
Angle of attack (AoA): 24 deg, and angle of sideslip (AoS): 0 deg.
Reynolds number: 6.86229e+08. Reference length 5.
Reading and writing binary SU2 native restart files.
Read flow solution from: restart_flow.dat.
Non-Dimensional simulation (V=1.0, Rho=1.0, T=1.0 at the farfield).
The reference area will be computed using y(2D) or z(3D) projection.
The semi-span will be computed using the max y(3D) value.
The reference length is 0.64607 m.
Reference origin for moment evaluation is (0.25, 0, 0).
Surface(s) where the force coefficients are evaluated: ORION_SURFACE.

Input mesh file name: fine.su2

--------------- Space Numerical Integration ( Zone 0 ) ------------------
Jameson-Schmidt-Turkel scheme (2nd order in space) for the flow inviscid terms.
JST viscous coefficients (2nd & 4th): 0.5, 0.02.
The method includes a grid stretching correction (p = 0.3).
Scalar upwind solver for the turbulence model.
First order integration in space.
Average of gradients with correction (viscous flow terms).
Average of gradients with correction (viscous turbulence terms).
Gradient for upwind reconstruction: Green-Gauss.
Gradient for viscous and source terms: Green-Gauss.

--------------- Time Numerical Integration  ( Zone 0 ) ------------------
Local time stepping (steady state simulation).
Euler implicit method for the flow equations.
FGMRES is used for solving the linear system.
Using a ILU(0) preconditioning.
Convergence criteria of the linear solver: 1e-06.
Max number of linear iterations: 100.
CFL adaptation. Factor down: 0.5, factor up: 1.1,
                lower limit: 0.05, upper limit: 0.5,
                acceptable linear residual: 0.001.
Courant-Friedrichs-Lewy number:     0.03
Euler implicit time integration for the turbulence model.

------------------ Convergence Criteria  ( Zone 0 ) ---------------------
Maximum number of solver subiterations: 999999.
Begin convergence monitoring at iteration 5.
Residual minimum value: 1e-8.
Cauchy series min. value: 1e-10.
Number of Cauchy elements: 100.
Begin windowed time average at iteration 0.

-------------------- Output Information ( Zone 0 ) ----------------------
File writing frequency: 
+------------------------------------+
|                     File| Frequency|
+------------------------------------+
|                  RESTART|       150|
|                 PARAVIEW|       150|
|         SURFACE_PARAVIEW|       150|
+------------------------------------+
Writing the convergence history file every 1 inner iterations.
Writing the screen convergence history every 1 inner iterations.
The tabular file format is CSV (.csv).
Convergence history file name: history.
Forces breakdown file name: forces_breakdown.dat.
Surface file name: surface_flow.
Volume file name: flow.
Restart file name: restart_flow.

------------- Config File Boundary Information ( Zone 0 ) ---------------
+-----------------------------------------------------------------------+
|                        Marker Type|                        Marker Name|
+-----------------------------------------------------------------------+
|                          Far-field|                           FARFIELD|
+-----------------------------------------------------------------------+
|                     Heat flux wall|                      ORION_SURFACE|
+-----------------------------------------------------------------------+

-------------------- Output Preprocessing ( Zone 0 ) --------------------

WARNING: SURFACE_PRESSURE_DROP can only be computed for at least 2 surfaces (outlet, inlet, ...)

Screen output fields: INNER_ITER, WALL_TIME, MIN_DELTA_TIME, MAX_DELTA_TIME, MIN_CFL, MAX_CFL, AVG_CFL, RMS_DENSITY, RMS_MOMENTUM-X, RMS_MOMENTUM-Y, RMS_MOMENTUM-Z, RMS_ENERGY, RMS_NU_TILDE, DRAG
History output group(s): ITER, RMS_RES
Convergence field(s): RMS_DENSITY
Warning: No (valid) fields chosen for time convergence monitoring. Time convergence monitoring inactive.
Volume output fields: MACH, PRESSURE, TEMPERATURE, DENSITY, HEAT_FLUX, Y_PLUS, COORDINATES, SOLUTION

------------------- Geometry Preprocessing ( Zone 0 ) -------------------
Three dimensional problem.
62211324 grid points before partitioning.
190879888 volume elements before partitioning.
2 surface markers.
4104 boundary elements in index 0 (Marker = FARFIELD).
1824836 boundary elements in index 1 (Marker = ORION_SURFACE).
Executing the partitioning functions.
Building the graph adjacency structure.
Calling ParMETIS... graph partitioning complete (4959327 edge cuts).
Distributing ParMETIS coloring.
Rebalancing vertices.
Rebalancing volume element connectivity.
Rebalancing markers and surface elements.
66952290 vertices including ghost points. 
197997438 interior elements including halo cells. 
103171259 tetrahedra.
94500655 prisms.
325524 pyramids.
Establishing MPI communication patterns.
Setting point connectivity.
Renumbering points (Reverse Cuthill McKee Ordering).
Recomputing point connectivity.
Setting element connectivity.
Checking the numerical grid orientation.
All volume elements are correctly orientend.
All surface elements are correctly orientend.
Identifying edges and vertices.
Setting the control volume structure.
Volume of the computational grid: 535693.
Searching for the closest normal neighbors to the surfaces.
Storing a mapping from global to local point index.
Compute the surface curvature.
Max K: 132.896. Mean K: 3.9104. Standard deviation K: 7.49569.
Checking for periodicity.
Computing mesh quality statistics for the dual control volumes.
+--------------------------------------------------------------+
|           Mesh Quality Metric|        Minimum|        Maximum|
+--------------------------------------------------------------+
|    Orthogonality Angle (deg.)|        53.0661|             90|
|     CV Face Area Aspect Ratio|        1.01143|        75298.5|
|           CV Sub-Volume Ratio|        1.00029|        45.0258|
+--------------------------------------------------------------+
Finding max control volume width.
Communicating number of neighbors.
Reference area = 11.531 m^2.
Semi-span length = 2.49999 m.
Wetted area = 57.9072 m^2.
Area projection in the x-plane = 19.6343 m^2, y-plane = 11.531 m^2, z-plane = 11.531 m^2.
Max. coordinate in the x-direction = 2.575 m, y-direction = 2.49999 m, z-direction = 2.49999 m.
Min. coordinate in the x-direction = -0.71 m, y-direction = -2.49999 m, z-direction = -2.5 m.
Computing wall distances.

-------------------- Solver Preprocessing ( Zone 0 ) --------------------
Viscous flow: Computing pressure using the ideal gas law
based on the free-stream temperature and a density computed
from the Reynolds number.
Force coefficients computed using free-stream values.

-- Models:
+------------------------------------------------------------------------------+
|          Viscosity Model|        Conductivity Model|              Fluid Model|
+------------------------------------------------------------------------------+
|               SUTHERLAND|          CONSTANT_PRANDTL|             STANDARD_AIR|
+------------------------------------------------------------------------------+
-- Fluid properties:
+------------------------------------------------------------------------------+
|                  Name|    Dim. value|    Ref. value|      Unit|Non-dim. value|
+------------------------------------------------------------------------------+
|        Ref. Viscosity|     1.716e-05|       2455.73|   N.s/m^2|   6.98773e-09|
|      Sutherland Temp.|        273.15|        288.15|         K|      0.947944|
|     Sutherland Const.|         110.4|        288.15|         K|      0.383134|
+------------------------------------------------------------------------------+
|        Prandtl (Lam.)|             -|             -|         -|          0.72|
|       Prandtl (Turb.)|             -|             -|         -|           0.9|
+------------------------------------------------------------------------------+
|          Gas Constant|       287.058|       14467.7|  N.m/kg.K|     0.0198413|
|      Spec. Heat Ratio|             -|             -|         -|           1.4|
+------------------------------------------------------------------------------+
-- Initial and free-stream conditions:
+------------------------------------------------------------------------------+
|                  Name|    Dim. value|    Ref. value|      Unit|Non-dim. value|
+------------------------------------------------------------------------------+
|       Static Pressure|       99485.6|   5.01407e+06|        Pa|     0.0198413|
|               Density|       1.20274|       1.20274|    kg/m^3|             1|
|           Temperature|        288.15|        288.15|         K|             1|
|          Total Energy|   2.29123e+06|   4.16887e+06|   m^2/s^2|      0.549603|
|            Velocity-X|       1865.26|       2041.78|       m/s|      0.913545|
|            Velocity-Y|             0|       2041.78|       m/s|             0|
|            Velocity-Z|       830.468|       2041.78|       m/s|      0.406737|
|    Velocity Magnitude|       2041.78|       2041.78|       m/s|             1|
+------------------------------------------------------------------------------+
|             Viscosity|    1.7893e-05|       2455.73|   N.s/m^2|    7.2862e-09|
|          Conductivity|             -|   3.55289e+07|   W/m^2.K|             -|
|     Turb. Kin. Energy|       15633.3|   4.16887e+06|   m^2/s^2|       0.00375|
|     Spec. Dissipation|   1.05085e+08|       2041.78|       1/s|       51467.1|
+------------------------------------------------------------------------------+
|           Mach Number|             -|             -|         -|             6|
|       Reynolds Number|             -|             -|         -|   6.86229e+08|
+------------------------------------------------------------------------------+
Initialize Jacobian structure (Navier-Stokes). MG level: 0.
Initialize Jacobian structure (SA model).

------------------- Numerics Preprocessing ( Zone 0 ) -------------------

----------------- Integration Preprocessing ( Zone 0 ) ------------------

------------------- Iteration Preprocessing ( Zone 0 ) ------------------
Euler/Navier-Stokes/RANS fluid iteration.

------------------------------ Begin Solver -----------------------------

Simulation Run using the Single-zone Driver
WARNING: SU2 was not compiled for an AVX-capable architecture. Performance could be better,
         see https://su2code.github.io/docs_v7/Build-SU2-Linux-MacOS/#compiler-optimizations
+-------------------------------------------------------------------------------------------------------------------------------------------------------------------------------------+
|  Inner_Iter|   Time(sec)|      Min DT|      Max DT|     Min CFL|     Max CFL|     Avg CFL|    rms[Rho]|   rms[RhoU]|   rms[RhoV]|   rms[RhoW]|   rms[RhoE]|     rms[nu]|          CD|
+-------------------------------------------------------------------------------------------------------------------------------------------------------------------------------------+
|           0|  2.0393e+01|  2.4021e-10|  4.6179e-02|  5.0000e-02|  5.0000e-02|  5.0000e-02|   -5.785421|   -5.884504|   -6.542867|   -6.113968|   -6.066367|   -8.599162|    2.047644|
|           1|  1.3200e+01|  4.0035e-10|  7.6965e-02|  5.5000e-02|  5.5000e-02|  5.5000e-02|   -5.785477|   -5.884548|   -6.542934|   -6.114031|   -6.066437|   -8.599110|    2.047646|
|           2|  1.0727e+01|  4.4039e-10|  8.4662e-02|  6.0500e-02|  6.0500e-02|  6.0500e-02|   -5.785567|   -5.884619|   -6.543040|   -6.114132|   -6.066549|   -8.599114|    2.047648|
|           3|  9.4830e+00|  4.8443e-10|  9.3128e-02|  6.6550e-02|  6.6550e-02|  6.6550e-02|   -5.785665|   -5.884696|   -6.543154|   -6.114242|   -6.066670|   -8.599119|    2.047650|
|           4|  8.7249e+00|  5.3287e-10|  1.0244e-01|  7.3205e-02|  7.3205e-02|  7.3205e-02|   -5.785772|   -5.884781|   -6.543278|   -6.114361|   -6.066802|   -8.599124|    2.047653|
|           5|  8.2087e+00|  5.8616e-10|  1.1269e-01|  8.0526e-02|  8.0526e-02|  8.0526e-02|   -5.785889|   -5.884873|   -6.543410|   -6.114491|   -6.066945|   -8.599130|    2.047655|
|           6|  7.8470e+00|  6.4477e-10|  1.2395e-01|  8.8578e-02|  8.8578e-02|  8.8578e-02|   -5.786016|   -5.884975|   -6.543552|   -6.114631|   -6.067099|   -8.599137|    2.047658|
|           7|  7.5840e+00|  7.0925e-10|  1.3635e-01|  9.7436e-02|  9.7436e-02|  9.7436e-02|   -5.786154|   -5.885085|   -6.543704|   -6.114784|   -6.067267|   -8.599144|    2.047661|
|           8|  7.3690e+00|  7.8017e-10|  1.4998e-01|  1.0718e-01|  1.0718e-01|  1.0718e-01|   -5.786304|   -5.885205|   -6.543866|   -6.114948|   -6.067447|   -8.599152|    2.047665|
|           9|  7.2088e+00|  8.5819e-10|  1.6498e-01|  1.1790e-01|  1.1790e-01|  1.1790e-01|   -5.786466|   -5.885337|   -6.544037|   -6.115126|   -6.067641|   -8.599161|    2.047669|
|          10|  7.0713e+00|  9.4400e-10|  1.8148e-01|  1.2969e-01|  1.2969e-01|  1.2969e-01|   -5.786642|   -5.885480|   -6.544219|   -6.115318|   -6.067851|   -8.599171|    2.047673|
|          11|  6.9726e+00|  1.0384e-09|  1.9963e-01|  1.4266e-01|  1.4266e-01|  1.4266e-01|   -5.786832|   -5.885635|   -6.544410|   -6.115524|   -6.068075|   -8.599183|    2.047678|
|          12|  6.9526e+00|  1.1422e-09|  2.1959e-01|  1.5692e-01|  1.5692e-01|  1.5692e-01|   -5.787037|   -5.885804|   -6.544611|   -6.115745|   -6.068314|   -8.599195|    2.047683|
|          13|  6.9192e+00|  1.2565e-09|  2.4155e-01|  1.7261e-01|  1.7261e-01|  1.7261e-01|   -5.787258|   -5.885986|   -6.544820|   -6.115981|   -6.068570|   -8.599209|    2.047689|
|          14|  6.8877e+00|  1.3821e-09|  2.6571e-01|  1.8987e-01|  1.8987e-01|  1.8987e-01|   -5.787496|   -5.886184|   -6.545036|   -6.116234|   -6.068842|   -8.599225|    2.047696|
|          15|  6.8517e+00|  1.5203e-09|  2.9228e-01|  2.0886e-01|  2.0886e-01|  2.0886e-01|   -5.787750|   -5.886397|   -6.545257|   -6.116502|   -6.069129|   -8.599243|    2.047703|
|          16|  6.8217e+00|  1.6723e-09|  3.2150e-01|  2.2975e-01|  2.2975e-01|  2.2975e-01|   -5.788023|   -5.886627|   -6.545483|   -6.116787|   -6.069431|   -8.599263|    2.047710|
|          17|  6.7925e+00|  1.8396e-09|  3.5365e-01|  2.5272e-01|  2.5272e-01|  2.5272e-01|   -5.788313|   -5.886874|   -6.545710|   -6.117087|   -6.069748|   -8.599286|    2.047719|
|          18|  6.7694e+00|  2.0235e-09|  3.8902e-01|  2.7800e-01|  2.7800e-01|  2.7800e-01|   -5.788621|   -5.887138|   -6.545936|   -6.117403|   -6.070078|   -8.599312|    2.047729|
|          19|  6.7546e+00|  2.2259e-09|  4.2792e-01|  3.0580e-01|  3.0580e-01|  3.0580e-01|   -5.788947|   -5.887418|   -6.546156|   -6.117732|   -6.070417|   -8.599341|    2.047739|
|          20|  6.7421e+00|  2.4484e-09|  4.7071e-01|  3.3637e-01|  3.3637e-01|  3.3637e-01|   -5.789289|   -5.887715|   -6.546367|   -6.118074|   -6.070764|   -8.599374|    2.047751|
|          21|  6.7256e+00|  2.6933e-09|  5.1779e-01|  3.7001e-01|  3.7001e-01|  3.7001e-01|   -5.789647|   -5.888027|   -6.546562|   -6.118426|   -6.071114|   -8.599413|    2.047763|
|          22|  6.7351e+00|  2.9626e-09|  5.6956e-01|  4.0701e-01|  4.0701e-01|  4.0701e-01|   -5.790018|   -5.888353|   -6.546737|   -6.118785|   -6.071460|   -8.599457|    2.047778|
|          23|  6.7439e+00|  3.2588e-09|  6.2652e-01|  4.4772e-01|  4.4772e-01|  4.4772e-01|   -5.790399|   -5.888689|   -6.546883|   -6.119145|   -6.071794|   -8.599508|    2.047793|
|          24|  6.7517e+00|  3.5847e-09|  6.8917e-01|  4.9249e-01|  4.9249e-01|  4.9249e-01|   -5.790784|   -5.889030|   -6.546993|   -6.119502|   -6.072108|   -8.599567|    2.047811|
|          25|  6.7605e+00|  3.9431e-09|  7.5809e-01|  5.0000e-01|  5.0000e-01|  5.0000e-01|   -5.791169|   -5.889372|   -6.547057|   -6.119848|   -6.072387|   -8.599635|    2.047830|
|          26|  6.7715e+00|  4.0033e-09|  7.6965e-01|  5.0000e-01|  5.0000e-01|  5.0000e-01|   -5.791544|   -5.889705|   -6.547064|   -6.120175|   -6.072616|   -8.599843|    2.047849|
|          27|  6.7826e+00|  4.0032e-09|  7.6965e-01|  5.0000e-01|  5.0000e-01|  5.0000e-01|   -5.791914|   -5.890029|   -6.547073|   -6.120495|   -6.072829|   -8.600080|    2.047869|
|          28|  6.7925e+00|  4.0032e-09|  7.6965e-01|  5.0000e-01|  5.0000e-01|  5.0000e-01|   -5.792280|   -5.890346|   -6.547094|   -6.120814|   -6.073033|   -8.600318|    2.047889|
|          29|  6.8014e+00|  4.0032e-09|  7.6965e-01|  5.0000e-01|  5.0000e-01|  5.0000e-01|   -5.792642|   -5.890656|   -6.547128|   -6.121132|   -6.073230|   -8.600557|    2.047909|
|          30|  6.8228e+00|  4.0032e-09|  7.6965e-01|  5.0000e-01|  5.0000e-01|  5.0000e-01|   -5.793000|   -5.890959|   -6.547174|   -6.121449|   -6.073419|   -8.600797|    2.047929|
|          31|  6.8354e+00|  4.0031e-09|  7.6965e-01|  5.0000e-01|  5.0000e-01|  5.0000e-01|   -5.793355|   -5.891257|   -6.547232|   -6.121764|   -6.073602|   -8.601037|    2.047949|
|          32|  6.8454e+00|  4.0031e-09|  7.6965e-01|  5.0000e-01|  5.0000e-01|  5.0000e-01|   -5.793707|   -5.891550|   -6.547301|   -6.122079|   -6.073779|   -8.601278|    2.047969|
|          33|  6.8541e+00|  4.0031e-09|  7.6965e-01|  5.0000e-01|  5.0000e-01|  5.0000e-01|   -5.794057|   -5.891838|   -6.547381|   -6.122393|   -6.073951|   -8.601521|    2.047990|
|          34|  6.8564e+00|  4.0031e-09|  7.6965e-01|  5.0000e-01|  5.0000e-01|  5.0000e-01|   -5.794405|   -5.892123|   -6.547471|   -6.122707|   -6.074118|   -8.601763|    2.048010|
|          35|  6.8627e+00|  4.0030e-09|  7.6965e-01|  5.0000e-01|  5.0000e-01|  5.0000e-01|   -5.794751|   -5.892405|   -6.547570|   -6.123022|   -6.074283|   -8.602007|    2.048030|
|          36|  6.8676e+00|  4.0030e-09|  7.6965e-01|  5.0000e-01|  5.0000e-01|  5.0000e-01|   -5.795096|   -5.892685|   -6.547679|   -6.123337|   -6.074446|   -8.602251|    2.048051|
|          37|  6.8717e+00|  4.0030e-09|  7.6965e-01|  5.0000e-01|  5.0000e-01|  5.0000e-01|   -5.795441|   -5.892964|   -6.547798|   -6.123654|   -6.074607|   -8.602496|    2.048072|
|          38|  6.8780e+00|  4.0030e-09|  7.6965e-01|  5.0000e-01|  5.0000e-01|  5.0000e-01|   -5.795787|   -5.893243|   -6.547924|   -6.123972|   -6.074767|   -8.602741|    2.048093|
|          39|  6.8810e+00|  4.0029e-09|  7.6965e-01|  5.0000e-01|  5.0000e-01|  5.0000e-01|   -5.796133|   -5.893522|   -6.548059|   -6.124292|   -6.074929|   -8.602987|    2.048114|
|          40|  6.8834e+00|  4.0029e-09|  7.6965e-01|  5.0000e-01|  5.0000e-01|  5.0000e-01|   -5.796481|   -5.893802|   -6.548201|   -6.124615|   -6.075091|   -8.603233|    2.048135|
|          41|  6.8845e+00|  4.0029e-09|  7.6965e-01|  5.0000e-01|  5.0000e-01|  5.0000e-01|   -5.796831|   -5.894084|   -6.548351|   -6.124941|   -6.075256|   -8.603479|    2.048156|
|          42|  6.8887e+00|  4.0029e-09|  7.6965e-01|  5.0000e-01|  5.0000e-01|  5.0000e-01|   -5.797183|   -5.894369|   -6.548507|   -6.125271|   -6.075424|   -8.603726|    2.048177|
|          43|  6.8875e+00|  4.0028e-09|  7.6965e-01|  5.0000e-01|  5.0000e-01|  5.0000e-01|   -5.797538|   -5.894657|   -6.548670|   -6.125603|   -6.075596|   -8.603974|    2.048198|
|          44|  6.8906e+00|  4.0028e-09|  7.6965e-01|  5.0000e-01|  5.0000e-01|  5.0000e-01|   -5.797897|   -5.894949|   -6.548840|   -6.125941|   -6.075772|   -8.604221|    2.048220|
|          45|  6.8922e+00|  4.0028e-09|  7.6965e-01|  5.0000e-01|  5.0000e-01|  5.0000e-01|   -5.798260|   -5.895245|   -6.549015|   -6.126282|   -6.075954|   -8.604469|    2.048241|
|          46|  6.8959e+00|  4.0028e-09|  7.6965e-01|  5.0000e-01|  5.0000e-01|  5.0000e-01|   -5.798628|   -5.895547|   -6.549195|   -6.126629|   -6.076142|   -8.604717|    2.048263|
|          47|  6.9092e+00|  4.0027e-09|  7.6965e-01|  5.0000e-01|  5.0000e-01|  5.0000e-01|   -5.799000|   -5.895854|   -6.549381|   -6.126980|   -6.076335|   -8.604966|    2.048285|
|          48|  6.9128e+00|  4.0027e-09|  7.6965e-01|  5.0000e-01|  5.0000e-01|  5.0000e-01|   -5.799378|   -5.896167|   -6.549571|   -6.127336|   -6.076536|   -8.605214|    2.048307|
|          49|  6.9127e+00|  4.0027e-09|  7.6965e-01|  5.0000e-01|  5.0000e-01|  5.0000e-01|   -5.799760|   -5.896485|   -6.549765|   -6.127697|   -6.076743|   -8.605463|    2.048329|
|          50|  6.9142e+00|  4.0026e-09|  7.6965e-01|  5.0000e-01|  5.0000e-01|  5.0000e-01|   -5.800149|   -5.896811|   -6.549963|   -6.128063|   -6.076957|   -8.605712|    2.048351|
|          51|  6.9129e+00|  4.0026e-09|  7.6965e-01|  5.0000e-01|  5.0000e-01|  5.0000e-01|   -5.800543|   -5.897142|   -6.550166|   -6.128434|   -6.077179|   -8.605961|    2.048373|
|          52|  6.9124e+00|  4.0026e-09|  7.6965e-01|  5.0000e-01|  5.0000e-01|  5.0000e-01|   -5.800942|   -5.897481|   -6.550373|   -6.128811|   -6.077409|   -8.606210|    2.048395|
|          53|  6.9118e+00|  4.0026e-09|  7.6965e-01|  5.0000e-01|  5.0000e-01|  5.0000e-01|   -5.801349|   -5.897827|   -6.550582|   -6.129194|   -6.077647|   -8.606459|    2.048417|
|          54|  6.9126e+00|  4.0025e-09|  7.6965e-01|  5.0000e-01|  5.0000e-01|  5.0000e-01|   -5.801761|   -5.898180|   -6.550795|   -6.129581|   -6.077893|   -8.606709|    2.048440|
|          55|  6.9123e+00|  4.0025e-09|  7.6965e-01|  5.0000e-01|  5.0000e-01|  5.0000e-01|   -5.802179|   -5.898539|   -6.551011|   -6.129974|   -6.078147|   -8.606958|    2.048462|
|          56|  6.9115e+00|  4.0025e-09|  7.6965e-01|  5.0000e-01|  5.0000e-01|  5.0000e-01|   -5.802604|   -5.898906|   -6.551229|   -6.130373|   -6.078408|   -8.607207|    2.048485|
|          57|  6.9108e+00|  4.0025e-09|  7.6965e-01|  5.0000e-01|  5.0000e-01|  5.0000e-01|   -5.803035|   -5.899281|   -6.551449|   -6.130776|   -6.078678|   -8.607457|    2.048508|
|          58|  6.9084e+00|  4.0024e-09|  7.6965e-01|  5.0000e-01|  5.0000e-01|  5.0000e-01|   -5.803472|   -5.899662|   -6.551672|   -6.131184|   -6.078956|   -8.607706|    2.048531|
|          59|  6.9072e+00|  4.0024e-09|  7.6965e-01|  5.0000e-01|  5.0000e-01|  5.0000e-01|   -5.803916|   -5.900050|   -6.551896|   -6.131598|   -6.079241|   -8.607955|    2.048554|
|          60|  6.9077e+00|  4.0024e-09|  7.6965e-01|  5.0000e-01|  5.0000e-01|  5.0000e-01|   -5.804366|   -5.900445|   -6.552122|   -6.132017|   -6.079534|   -8.608205|    2.048577|
|          61|  6.9076e+00|  4.0024e-09|  7.6965e-01|  5.0000e-01|  5.0000e-01|  5.0000e-01|   -5.804822|   -5.900848|   -6.552350|   -6.132440|   -6.079835|   -8.608454|    2.048600|
|          62|  6.9061e+00|  4.0023e-09|  7.6965e-01|  5.0000e-01|  5.0000e-01|  5.0000e-01|   -5.805284|   -5.901256|   -6.552580|   -6.132868|   -6.080143|   -8.608703|    2.048623|
|          63|  6.9101e+00|  4.0023e-09|  7.6965e-01|  5.0000e-01|  5.0000e-01|  5.0000e-01|   -5.805752|   -5.901672|   -6.552810|   -6.133301|   -6.080457|   -8.608953|    2.048646|
|          64|  6.9138e+00|  4.0023e-09|  7.6965e-01|  5.0000e-01|  5.0000e-01|  5.0000e-01|   -5.806226|   -5.902093|   -6.553043|   -6.133737|   -6.080779|   -8.609202|    2.048670|
|          65|  6.9126e+00|  4.0023e-09|  7.6965e-01|  5.0000e-01|  5.0000e-01|  5.0000e-01|   -5.806705|   -5.902521|   -6.553276|   -6.134177|   -6.081106|   -8.609451|    2.048693|
|          66|  6.9127e+00|  4.0022e-09|  7.6965e-01|  5.0000e-01|  5.0000e-01|  5.0000e-01|   -5.807190|   -5.902956|   -6.553511|   -6.134622|   -6.081441|   -8.609700|    2.048717|
|          67|  6.9114e+00|  4.0022e-09|  7.6965e-01|  5.0000e-01|  5.0000e-01|  5.0000e-01|   -5.807681|   -5.903396|   -6.553748|   -6.135071|   -6.081782|   -8.609948|    2.048741|
|          68|  6.9097e+00|  4.0022e-09|  7.6965e-01|  5.0000e-01|  5.0000e-01|  5.0000e-01|   -5.808177|   -5.903843|   -6.553986|   -6.135524|   -6.082129|   -8.610197|    2.048764|
|          69|  6.9094e+00|  4.0022e-09|  7.6965e-01|  5.0000e-01|  5.0000e-01|  5.0000e-01|   -5.808678|   -5.904295|   -6.554224|   -6.135980|   -6.082481|   -8.610446|    2.048788|
|          70|  6.9079e+00|  4.0021e-09|  7.6965e-01|  5.0000e-01|  5.0000e-01|  5.0000e-01|   -5.809185|   -5.904752|   -6.554464|   -6.136439|   -6.082840|   -8.610694|    2.048812|
|          71|  6.9067e+00|  4.0021e-09|  7.6965e-01|  5.0000e-01|  5.0000e-01|  5.0000e-01|   -5.809696|   -5.905215|   -6.554705|   -6.136902|   -6.083203|   -8.610942|    2.048836|
|          72|  6.9068e+00|  4.0021e-09|  7.6965e-01|  5.0000e-01|  5.0000e-01|  5.0000e-01|   -5.810212|   -5.905684|   -6.554947|   -6.137367|   -6.083571|   -8.611190|    2.048860|
|          73|  6.9060e+00|  4.0021e-09|  7.6965e-01|  5.0000e-01|  5.0000e-01|  5.0000e-01|   -5.810733|   -5.906157|   -6.555190|   -6.137836|   -6.083944|   -8.611438|    2.048885|
|          74|  6.9044e+00|  4.0020e-09|  7.6965e-01|  5.0000e-01|  5.0000e-01|  5.0000e-01|   -5.811259|   -5.906636|   -6.555433|   -6.138308|   -6.084322|   -8.611686|    2.048909|
|          75|  6.9043e+00|  4.0020e-09|  7.6965e-01|  5.0000e-01|  5.0000e-01|  5.0000e-01|   -5.811789|   -5.907120|   -6.555678|   -6.138783|   -6.084705|   -8.611934|    2.048933|
|          76|  6.9041e+00|  4.0020e-09|  7.6965e-01|  5.0000e-01|  5.0000e-01|  5.0000e-01|   -5.812324|   -5.907608|   -6.555923|   -6.139261|   -6.085092|   -8.612181|    2.048958|
|          77|  6.9011e+00|  4.0019e-09|  7.6965e-01|  5.0000e-01|  5.0000e-01|  5.0000e-01|   -5.812862|   -5.908102|   -6.556169|   -6.139741|   -6.085483|   -8.612429|    2.048983|
|          78|  6.8979e+00|  4.0019e-09|  7.6965e-01|  5.0000e-01|  5.0000e-01|  5.0000e-01|   -5.813405|   -5.908600|   -6.556416|   -6.140224|   -6.085879|   -8.612676|    2.049007|
|          79|  6.8959e+00|  4.0019e-09|  7.6965e-01|  5.0000e-01|  5.0000e-01|  5.0000e-01|   -5.813953|   -5.909102|   -6.556664|   -6.140710|   -6.086278|   -8.612923|    2.049032|
|          80|  6.8960e+00|  4.0019e-09|  7.6965e-01|  5.0000e-01|  5.0000e-01|  5.0000e-01|   -5.814504|   -5.909610|   -6.556913|   -6.141199|   -6.086682|   -8.613169|    2.049057|
|          81|  6.8958e+00|  4.0018e-09|  7.6965e-01|  5.0000e-01|  5.0000e-01|  5.0000e-01|   -5.815059|   -5.910122|   -6.557163|   -6.141690|   -6.087089|   -8.613416|    2.049082|
|          82|  6.8974e+00|  4.0018e-09|  7.6965e-01|  5.0000e-01|  5.0000e-01|  5.0000e-01|   -5.815618|   -5.910638|   -6.557413|   -6.142184|   -6.087500|   -8.613662|    2.049107|
|          83|  6.8976e+00|  4.0018e-09|  7.6965e-01|  5.0000e-01|  5.0000e-01|  5.0000e-01|   -5.816181|   -5.911159|   -6.557665|   -6.142679|   -6.087914|   -8.613908|    2.049132|
|          84|  6.8965e+00|  4.0018e-09|  7.6965e-01|  5.0000e-01|  5.0000e-01|  5.0000e-01|   -5.816747|   -5.911685|   -6.557917|   -6.143178|   -6.088332|   -8.614153|    2.049157|
|          85|  6.8956e+00|  4.0017e-09|  7.6965e-01|  5.0000e-01|  5.0000e-01|  5.0000e-01|   -5.817317|   -5.912215|   -6.558170|   -6.143678|   -6.088754|   -8.614399|    2.049183|
|          86|  6.8951e+00|  4.0017e-09|  7.6965e-01|  5.0000e-01|  5.0000e-01|  5.0000e-01|   -5.817891|   -5.912749|   -6.558425|   -6.144182|   -6.089179|   -8.614644|    2.049208|
|          87|  6.8950e+00|  4.0017e-09|  7.6965e-01|  5.0000e-01|  5.0000e-01|  5.0000e-01|   -5.818468|   -5.913287|   -6.558680|   -6.144687|   -6.089607|   -8.614889|    2.049233|
|          88|  6.8941e+00|  4.0017e-09|  7.6965e-01|  5.0000e-01|  5.0000e-01|  5.0000e-01|   -5.819048|   -5.913830|   -6.558936|   -6.145194|   -6.090038|   -8.615133|    2.049259|
|          89|  6.8922e+00|  4.0016e-09|  7.6965e-01|  5.0000e-01|  5.0000e-01|  5.0000e-01|   -5.819631|   -5.914376|   -6.559194|   -6.145704|   -6.090473|   -8.615377|    2.049285|
|          90|  6.8909e+00|  4.0016e-09|  7.6965e-01|  5.0000e-01|  5.0000e-01|  5.0000e-01|   -5.820218|   -5.914927|   -6.559452|   -6.146215|   -6.090910|   -8.615621|    2.049310|
|          91|  6.8901e+00|  4.0016e-09|  7.6965e-01|  5.0000e-01|  5.0000e-01|  5.0000e-01|   -5.820807|   -5.915482|   -6.559712|   -6.146728|   -6.091350|   -8.615865|    2.049336|
|          92|  6.8893e+00|  4.0016e-09|  7.6965e-01|  5.0000e-01|  5.0000e-01|  5.0000e-01|   -5.821400|   -5.916041|   -6.559973|   -6.147243|   -6.091794|   -8.616108|    2.049362|
|          93|  6.8877e+00|  4.0015e-09|  7.6965e-01|  5.0000e-01|  5.0000e-01|  5.0000e-01|   -5.821996|   -5.916604|   -6.560235|   -6.147761|   -6.092241|   -8.616351|    2.049388|
|          94|  6.8870e+00|  4.0015e-09|  7.6965e-01|  5.0000e-01|  5.0000e-01|  5.0000e-01|   -5.822594|   -5.917170|   -6.560498|   -6.148280|   -6.092690|   -8.616593|    2.049414|
|          95|  6.8863e+00|  4.0015e-09|  7.6965e-01|  5.0000e-01|  5.0000e-01|  5.0000e-01|   -5.823195|   -5.917741|   -6.560762|   -6.148800|   -6.093142|   -8.616835|    2.049440|
|          96|  6.8855e+00|  4.0015e-09|  7.6965e-01|  5.0000e-01|  5.0000e-01|  5.0000e-01|   -5.823799|   -5.918315|   -6.561027|   -6.149323|   -6.093596|   -8.617077|    2.049466|
|          97|  6.8844e+00|  4.0014e-09|  7.6965e-01|  5.0000e-01|  5.0000e-01|  5.0000e-01|   -5.824405|   -5.918892|   -6.561293|   -6.149846|   -6.094053|   -8.617318|    2.049493|
|          98|  6.8845e+00|  4.0014e-09|  7.6965e-01|  5.0000e-01|  5.0000e-01|  5.0000e-01|   -5.825014|   -5.919474|   -6.561560|   -6.150371|   -6.094512|   -8.617559|    2.049519|
|          99|  6.8859e+00|  4.0014e-09|  7.6965e-01|  5.0000e-01|  5.0000e-01|  5.0000e-01|   -5.825625|   -5.920059|   -6.561828|   -6.150897|   -6.094974|   -8.617800|    2.049546|
|         100|  6.8899e+00|  4.0014e-09|  7.6965e-01|  5.0000e-01|  5.0000e-01|  5.0000e-01|   -5.826239|   -5.920647|   -6.562096|   -6.151425|   -6.095438|   -8.618040|    2.049572|
|         101|  6.8900e+00|  4.0013e-09|  7.6965e-01|  5.0000e-01|  5.0000e-01|  5.0000e-01|   -5.826854|   -5.921239|   -6.562366|   -6.151953|   -6.095904|   -8.618279|    2.049599|
|         102|  6.8903e+00|  4.0013e-09|  7.6965e-01|  5.0000e-01|  5.0000e-01|  5.0000e-01|   -5.827472|   -5.921834|   -6.562637|   -6.152483|   -6.096373|   -8.618518|    2.049625|
|         103|  6.8894e+00|  4.0013e-09|  7.6965e-01|  5.0000e-01|  5.0000e-01|  5.0000e-01|   -5.828093|   -5.922432|   -6.562908|   -6.153014|   -6.096844|   -8.618757|    2.049652|
|         104|  6.8877e+00|  4.0013e-09|  7.6965e-01|  5.0000e-01|  5.0000e-01|  5.0000e-01|   -5.828715|   -5.923034|   -6.563180|   -6.153546|   -6.097317|   -8.618995|    2.049679|
|         105|  6.8873e+00|  4.0012e-09|  7.6965e-01|  5.0000e-01|  5.0000e-01|  5.0000e-01|   -5.829339|   -5.923639|   -6.563454|   -6.154079|   -6.097792|   -8.619232|    2.049706|
|         106|  6.8865e+00|  4.0012e-09|  7.6965e-01|  5.0000e-01|  5.0000e-01|  5.0000e-01|   -5.829965|   -5.924247|   -6.563727|   -6.154613|   -6.098269|   -8.619470|    2.049733|
|         107|  6.8865e+00|  4.0012e-09|  7.6965e-01|  5.0000e-01|  5.0000e-01|  5.0000e-01|   -5.830593|   -5.924858|   -6.564002|   -6.155147|   -6.098747|   -8.619706|    2.049760|
|         108|  6.8860e+00|  4.0012e-09|  7.6965e-01|  5.0000e-01|  5.0000e-01|  5.0000e-01|   -5.831222|   -5.925472|   -6.564277|   -6.155682|   -6.099228|   -8.619942|    2.049787|
|         109|  6.8847e+00|  4.0011e-09|  7.6965e-01|  5.0000e-01|  5.0000e-01|  5.0000e-01|   -5.831854|   -5.926089|   -6.564553|   -6.156217|   -6.099711|   -8.620177|    2.049815|
|         110|  6.8833e+00|  4.0011e-09|  7.6965e-01|  5.0000e-01|  5.0000e-01|  5.0000e-01|   -5.832487|   -5.926709|   -6.564830|   -6.156754|   -6.100195|   -8.620412|    2.049842|
|         111|  6.8820e+00|  4.0011e-09|  7.6965e-01|  5.0000e-01|  5.0000e-01|  5.0000e-01|   -5.833123|   -5.927332|   -6.565108|   -6.157291|   -6.100682|   -8.620646|    2.049869|
|         112|  6.8820e+00|  4.0010e-09|  7.6965e-01|  5.0000e-01|  5.0000e-01|  5.0000e-01|   -5.833760|   -5.927958|   -6.565386|   -6.157829|   -6.101170|   -8.620879|    2.049897|
|         113|  6.8817e+00|  4.0010e-09|  7.6965e-01|  5.0000e-01|  5.0000e-01|  5.0000e-01|   -5.834399|   -5.928588|   -6.565666|   -6.158367|   -6.101661|   -8.621112|    2.049924|
|         114|  6.8808e+00|  4.0010e-09|  7.6965e-01|  5.0000e-01|  5.0000e-01|  5.0000e-01|   -5.835041|   -5.929220|   -6.565946|   -6.158907|   -6.102154|   -8.621344|    2.049952|
|         115|  6.8805e+00|  4.0010e-09|  7.6965e-01|  5.0000e-01|  5.0000e-01|  5.0000e-01|   -5.835684|   -5.929855|   -6.566226|   -6.159447|   -6.102648|   -8.621576|    2.049980|
|         116|  6.8800e+00|  4.0009e-09|  7.6965e-01|  5.0000e-01|  5.0000e-01|  5.0000e-01|   -5.836328|   -5.930494|   -6.566507|   -6.159987|   -6.103145|   -8.621807|    2.050008|
|         117|  6.8802e+00|  4.0009e-09|  7.6965e-01|  5.0000e-01|  5.0000e-01|  5.0000e-01|   -5.836975|   -5.931135|   -6.566789|   -6.160529|   -6.103644|   -8.622037|    2.050035|
|         118|  6.8792e+00|  4.0009e-09|  7.6965e-01|  5.0000e-01|  5.0000e-01|  5.0000e-01|   -5.837624|   -5.931779|   -6.567072|   -6.161071|   -6.104145|   -8.622267|    2.050063|
|         119|  6.8786e+00|  4.0009e-09|  7.6965e-01|  5.0000e-01|  5.0000e-01|  5.0000e-01|   -5.838275|   -5.932427|   -6.567355|   -6.161614|   -6.104647|   -8.622495|    2.050091|
|         120|  6.8770e+00|  4.0008e-09|  7.6965e-01|  5.0000e-01|  5.0000e-01|  5.0000e-01|   -5.838928|   -5.933077|   -6.567639|   -6.162158|   -6.105152|   -8.622724|    2.050119|
|         121|  6.8758e+00|  4.0008e-09|  7.6965e-01|  5.0000e-01|  5.0000e-01|  5.0000e-01|   -5.839582|   -5.933731|   -6.567925|   -6.162703|   -6.105660|   -8.622951|    2.050148|
|         122|  6.8749e+00|  4.0008e-09|  7.6965e-01|  5.0000e-01|  5.0000e-01|  5.0000e-01|   -5.840239|   -5.934388|   -6.568211|   -6.163249|   -6.106170|   -8.623177|    2.050176|
|         123|  6.8733e+00|  4.0008e-09|  7.6965e-01|  5.0000e-01|  5.0000e-01|  5.0000e-01|   -5.840898|   -5.935048|   -6.568498|   -6.163795|   -6.106682|   -8.623403|    2.050204|
|         124|  6.8719e+00|  4.0007e-09|  7.6965e-01|  5.0000e-01|  5.0000e-01|  5.0000e-01|   -5.841558|   -5.935711|   -6.568785|   -6.164342|   -6.107196|   -8.623628|    2.050233|
|         125|  6.8713e+00|  4.0007e-09|  7.6965e-01|  5.0000e-01|  5.0000e-01|  5.0000e-01|   -5.842221|   -5.936377|   -6.569073|   -6.164890|   -6.107712|   -8.623853|    2.050261|
|         126|  6.8698e+00|  4.0007e-09|  7.6965e-01|  5.0000e-01|  5.0000e-01|  5.0000e-01|   -5.842885|   -5.937046|   -6.569361|   -6.165439|   -6.108231|   -8.624076|    2.050289|
|         127|  6.8697e+00|  4.0007e-09|  7.6965e-01|  5.0000e-01|  5.0000e-01|  5.0000e-01|   -5.843551|   -5.937718|   -6.569650|   -6.165988|   -6.108751|   -8.624299|    2.050318|
|         128|  6.8690e+00|  4.0006e-09|  7.6965e-01|  5.0000e-01|  5.0000e-01|  5.0000e-01|   -5.844219|   -5.938393|   -6.569939|   -6.166537|   -6.109273|   -8.624520|    2.050347|
|         129|  6.8680e+00|  4.0006e-09|  7.6965e-01|  5.0000e-01|  5.0000e-01|  5.0000e-01|   -5.844889|   -5.939071|   -6.570228|   -6.167088|   -6.109798|   -8.624741|    2.050375|
|         130|  6.8664e+00|  4.0006e-09|  7.6965e-01|  5.0000e-01|  5.0000e-01|  5.0000e-01|   -5.845561|   -5.939753|   -6.570518|   -6.167640|   -6.110325|   -8.624961|    2.050404|
|         131|  6.8663e+00|  4.0006e-09|  7.6965e-01|  5.0000e-01|  5.0000e-01|  5.0000e-01|   -5.846234|   -5.940437|   -6.570809|   -6.168192|   -6.110854|   -8.625180|    2.050433|
|         132|  6.8654e+00|  4.0005e-09|  7.6965e-01|  5.0000e-01|  5.0000e-01|  5.0000e-01|   -5.846909|   -5.941124|   -6.571099|   -6.168744|   -6.111384|   -8.625398|    2.050462|
|         133|  6.8641e+00|  4.0005e-09|  7.6965e-01|  5.0000e-01|  5.0000e-01|  5.0000e-01|   -5.847586|   -5.941815|   -6.571391|   -6.169298|   -6.111918|   -8.625615|    2.050491|
|         134|  6.8641e+00|  4.0005e-09|  7.6965e-01|  5.0000e-01|  5.0000e-01|  5.0000e-01|   -5.848265|   -5.942508|   -6.571683|   -6.169851|   -6.112453|   -8.625832|    2.050520|
|         135|  6.8640e+00|  4.0005e-09|  7.6965e-01|  5.0000e-01|  5.0000e-01|  5.0000e-01|   -5.848945|   -5.943204|   -6.571975|   -6.170405|   -6.112990|   -8.626047|    2.050549|
|         136|  6.8627e+00|  4.0004e-09|  7.6965e-01|  5.0000e-01|  5.0000e-01|  5.0000e-01|   -5.849627|   -5.943902|   -6.572267|   -6.170960|   -6.113528|   -8.626261|    2.050578|
|         137|  6.8613e+00|  4.0004e-09|  7.6965e-01|  5.0000e-01|  5.0000e-01|  5.0000e-01|   -5.850310|   -5.944604|   -6.572559|   -6.171515|   -6.114069|   -8.626475|    2.050608|
|         138|  6.8600e+00|  4.0004e-09|  7.6965e-01|  5.0000e-01|  5.0000e-01|  5.0000e-01|   -5.850994|   -5.945308|   -6.572852|   -6.172069|   -6.114611|   -8.626687|    2.050637|
|         139|  6.8590e+00|  4.0004e-09|  7.6965e-01|  5.0000e-01|  5.0000e-01|  5.0000e-01|   -5.851680|   -5.946015|   -6.573144|   -6.172625|   -6.115155|   -8.626898|    2.050666|
|         140|  6.8582e+00|  4.0003e-09|  7.6965e-01|  5.0000e-01|  5.0000e-01|  5.0000e-01|   -5.852367|   -5.946724|   -6.573438|   -6.173180|   -6.115701|   -8.627109|    2.050696|
|         141|  6.8572e+00|  4.0003e-09|  7.6965e-01|  5.0000e-01|  5.0000e-01|  5.0000e-01|   -5.853055|   -5.947436|   -6.573731|   -6.173735|   -6.116249|   -8.627318|    2.050725|
|         142|  6.8558e+00|  4.0003e-09|  7.6965e-01|  5.0000e-01|  5.0000e-01|  5.0000e-01|   -5.853745|   -5.948151|   -6.574025|   -6.174290|   -6.116798|   -8.627526|    2.050755|
|         143|  6.8545e+00|  4.0003e-09|  7.6965e-01|  5.0000e-01|  5.0000e-01|  5.0000e-01|   -5.854435|   -5.948868|   -6.574319|   -6.174845|   -6.117348|   -8.627733|    2.050784|
|         144|  6.8537e+00|  4.0002e-09|  7.6965e-01|  5.0000e-01|  5.0000e-01|  5.0000e-01|   -5.855127|   -5.949587|   -6.574614|   -6.175400|   -6.117900|   -8.627938|    2.050814|
|         145|  6.8523e+00|  4.0002e-09|  7.6965e-01|  5.0000e-01|  5.0000e-01|  5.0000e-01|   -5.855820|   -5.950309|   -6.574908|   -6.175955|   -6.118454|   -8.628143|    2.050844|
|         146|  6.8515e+00|  4.0002e-09|  7.6965e-01|  5.0000e-01|  5.0000e-01|  5.0000e-01|   -5.856513|   -5.951033|   -6.575203|   -6.176509|   -6.119009|   -8.628347|    2.050874|
|         147|  6.8508e+00|  4.0002e-09|  7.6965e-01|  5.0000e-01|  5.0000e-01|  5.0000e-01|   -5.857208|   -5.951760|   -6.575498|   -6.177064|   -6.119566|   -8.628549|    2.050903|
|         148|  6.8497e+00|  4.0001e-09|  7.6965e-01|  5.0000e-01|  5.0000e-01|  5.0000e-01|   -5.857904|   -5.952489|   -6.575794|   -6.177619|   -6.120124|   -8.628751|    2.050933|
|         149|  6.8485e+00|  4.0001e-09|  7.6965e-01|  5.0000e-01|  5.0000e-01|  5.0000e-01|   -5.858600|   -5.953221|   -6.576089|   -6.178173|   -6.120684|   -8.628951|    2.050963|
|         150|  6.8476e+00|  4.0001e-09|  7.6965e-01|  5.0000e-01|  5.0000e-01|  5.0000e-01|   -5.859298|   -5.953954|   -6.576385|   -6.178727|   -6.121246|   -8.629150|    2.050993|
+-----------------------------------------------------------------------+
|        File Writing Summary       |              Filename             |
+-----------------------------------------------------------------------+
|SU2 binary restart                 |restart_flow.dat                   |
|Paraview                           |flow.vtu                           |
|Paraview surface                   |surface_flow.vtu                   |
+-----------------------------------------------------------------------+
+-------------------------------------------------------------------------------------------------------------------------------------------------------------------------------------+
|  Inner_Iter|   Time(sec)|      Min DT|      Max DT|     Min CFL|     Max CFL|     Avg CFL|    rms[Rho]|   rms[RhoU]|   rms[RhoV]|   rms[RhoW]|   rms[RhoE]|     rms[nu]|          CD|
+-------------------------------------------------------------------------------------------------------------------------------------------------------------------------------------+
|         151|  6.9872e+00|  4.0001e-09|  7.6965e-01|  5.0000e-01|  5.0000e-01|  5.0000e-01|   -5.859997|   -5.954690|   -6.576681|   -6.179282|   -6.121808|   -8.629347|    2.051023|
|         152|  6.9875e+00|  4.0000e-09|  7.6965e-01|  5.0000e-01|  5.0000e-01|  5.0000e-01|   -5.860696|   -5.955429|   -6.576978|   -6.179835|   -6.122373|   -8.629544|    2.051054|
|         153|  6.9862e+00|  4.0000e-09|  7.6965e-01|  5.0000e-01|  5.0000e-01|  5.0000e-01|   -5.861396|   -5.956169|   -6.577274|   -6.180389|   -6.122938|   -8.629739|    2.051084|
|         154|  6.9846e+00|  4.0000e-09|  7.6965e-01|  5.0000e-01|  5.0000e-01|  5.0000e-01|   -5.862097|   -5.956912|   -6.577571|   -6.180942|   -6.123505|   -8.629933|    2.051114|
|         155|  6.9825e+00|  4.0000e-09|  7.6965e-01|  5.0000e-01|  5.0000e-01|  5.0000e-01|   -5.862799|   -5.957657|   -6.577868|   -6.181495|   -6.124073|   -8.630126|    2.051144|
|         156|  6.9810e+00|  3.9999e-09|  7.6965e-01|  5.0000e-01|  5.0000e-01|  5.0000e-01|   -5.863501|   -5.958404|   -6.578165|   -6.182048|   -6.124643|   -8.630317|    2.051175|
|         157|  6.9792e+00|  3.9999e-09|  7.6965e-01|  5.0000e-01|  5.0000e-01|  5.0000e-01|   -5.864204|   -5.959153|   -6.578462|   -6.182600|   -6.125214|   -8.630507|    2.051205|
|         158|  6.9771e+00|  3.9999e-09|  7.6965e-01|  5.0000e-01|  5.0000e-01|  5.0000e-01|   -5.864907|   -5.959904|   -6.578760|   -6.183151|   -6.125785|   -8.630695|    2.051236|
|         159|  6.9753e+00|  3.9998e-09|  7.6965e-01|  5.0000e-01|  5.0000e-01|  5.0000e-01|   -5.865610|   -5.960657|   -6.579057|   -6.183702|   -6.126358|   -8.630882|    2.051266|
|         160|  6.9730e+00|  3.9998e-09|  7.6965e-01|  5.0000e-01|  5.0000e-01|  5.0000e-01|   -5.866314|   -5.961413|   -6.579354|   -6.184253|   -6.126933|   -8.631068|    2.051297|
|         161|  6.9708e+00|  3.9998e-09|  7.6965e-01|  5.0000e-01|  5.0000e-01|  5.0000e-01|   -5.867019|   -5.962170|   -6.579652|   -6.184803|   -6.127508|   -8.631253|    2.051327|
|         162|  6.9688e+00|  3.9998e-09|  7.6965e-01|  5.0000e-01|  5.0000e-01|  5.0000e-01|   -5.867724|   -5.962929|   -6.579949|   -6.185352|   -6.128085|   -8.631437|    2.051358|
|         163|  6.9670e+00|  3.9997e-09|  7.6965e-01|  5.0000e-01|  5.0000e-01|  5.0000e-01|   -5.868429|   -5.963690|   -6.580246|   -6.185901|   -6.128662|   -8.631619|    2.051389|
|         164|  6.9652e+00|  3.9997e-09|  7.6965e-01|  5.0000e-01|  5.0000e-01|  5.0000e-01|   -5.869134|   -5.964453|   -6.580543|   -6.186449|   -6.129241|   -8.631799|    2.051420|
|         165|  6.9637e+00|  3.9997e-09|  7.6965e-01|  5.0000e-01|  5.0000e-01|  5.0000e-01|   -5.869839|   -5.965217|   -6.580840|   -6.186996|   -6.129820|   -8.631978|    2.051450|
|         166|  6.9619e+00|  3.9997e-09|  7.6965e-01|  5.0000e-01|  5.0000e-01|  5.0000e-01|   -5.870544|   -5.965983|   -6.581136|   -6.187543|   -6.130400|   -8.632156|    2.051481|
|         167|  6.9616e+00|  3.9996e-09|  7.6965e-01|  5.0000e-01|  5.0000e-01|  5.0000e-01|   -5.871249|   -5.966750|   -6.581433|   -6.188088|   -6.130981|   -8.632332|    2.051512|
|         168|  6.9612e+00|  3.9996e-09|  7.6965e-01|  5.0000e-01|  5.0000e-01|  5.0000e-01|   -5.871954|   -5.967519|   -6.581729|   -6.188632|   -6.131562|   -8.632507|    2.051543|
|         169|  6.9595e+00|  3.9996e-09|  7.6965e-01|  5.0000e-01|  5.0000e-01|  5.0000e-01|   -5.872658|   -5.968290|   -6.582025|   -6.189175|   -6.132144|   -8.632680|    2.051574|
|         170|  6.9577e+00|  3.9996e-09|  7.6965e-01|  5.0000e-01|  5.0000e-01|  5.0000e-01|   -5.873363|   -5.969062|   -6.582320|   -6.189717|   -6.132727|   -8.632852|    2.051605|
|         171|  6.9566e+00|  3.9995e-09|  7.6965e-01|  5.0000e-01|  5.0000e-01|  5.0000e-01|   -5.874067|   -5.969835|   -6.582616|   -6.190258|   -6.133311|   -8.633023|    2.051636|
|         172|  6.9552e+00|  3.9995e-09|  7.6965e-01|  5.0000e-01|  5.0000e-01|  5.0000e-01|   -5.874771|   -5.970609|   -6.582911|   -6.190798|   -6.133895|   -8.633191|    2.051667|
|         173|  6.9534e+00|  3.9995e-09|  7.6965e-01|  5.0000e-01|  5.0000e-01|  5.0000e-01|   -5.875475|   -5.971385|   -6.583206|   -6.191336|   -6.134480|   -8.633359|    2.051699|
|         174|  6.9522e+00|  3.9995e-09|  7.6965e-01|  5.0000e-01|  5.0000e-01|  5.0000e-01|   -5.876179|   -5.972162|   -6.583501|   -6.191873|   -6.135065|   -8.633524|    2.051730|
|         175|  6.9506e+00|  3.9994e-09|  7.6965e-01|  5.0000e-01|  5.0000e-01|  5.0000e-01|   -5.876881|   -5.972940|   -6.583795|   -6.192409|   -6.135651|   -8.633688|    2.051761|
|         176|  6.9491e+00|  3.9994e-09|  7.6965e-01|  5.0000e-01|  5.0000e-01|  5.0000e-01|   -5.877584|   -5.973719|   -6.584089|   -6.192944|   -6.136237|   -8.633851|    2.051793|
|         177|  6.9475e+00|  3.9994e-09|  7.6965e-01|  5.0000e-01|  5.0000e-01|  5.0000e-01|   -5.878286|   -5.974498|   -6.584383|   -6.193477|   -6.136824|   -8.634012|    2.051824|
|         178|  6.9454e+00|  3.9994e-09|  7.6965e-01|  5.0000e-01|  5.0000e-01|  5.0000e-01|   -5.878987|   -5.975279|   -6.584676|   -6.194008|   -6.137411|   -8.634172|    2.051855|
|         179|  6.9434e+00|  3.9993e-09|  7.6965e-01|  5.0000e-01|  5.0000e-01|  5.0000e-01|   -5.879687|   -5.976061|   -6.584969|   -6.194538|   -6.137998|   -8.634329|    2.051887|
|         180|  6.9417e+00|  3.9993e-09|  7.6965e-01|  5.0000e-01|  5.0000e-01|  5.0000e-01|   -5.880387|   -5.976844|   -6.585262|   -6.195067|   -6.138585|   -8.634486|    2.051918|
|         181|  6.9399e+00|  3.9993e-09|  7.6965e-01|  5.0000e-01|  5.0000e-01|  5.0000e-01|   -5.881086|   -5.977627|   -6.585554|   -6.195594|   -6.139173|   -8.634640|    2.051950|
|         182|  6.9385e+00|  3.9993e-09|  7.6965e-01|  5.0000e-01|  5.0000e-01|  5.0000e-01|   -5.881784|   -5.978411|   -6.585846|   -6.196118|   -6.139760|   -8.634793|    2.051981|
|         183|  6.9369e+00|  3.9992e-09|  7.6965e-01|  5.0000e-01|  5.0000e-01|  5.0000e-01|   -5.882481|   -5.979196|   -6.586137|   -6.196642|   -6.140348|   -8.634945|    2.052013|
|         184|  6.9351e+00|  3.9992e-09|  7.6965e-01|  5.0000e-01|  5.0000e-01|  5.0000e-01|   -5.883176|   -5.979981|   -6.586428|   -6.197163|   -6.140935|   -8.635094|    2.052045|
|         185|  6.9334e+00|  3.9992e-09|  7.6965e-01|  5.0000e-01|  5.0000e-01|  5.0000e-01|   -5.883871|   -5.980766|   -6.586718|   -6.197683|   -6.141523|   -8.635242|    2.052076|
|         186|  6.9327e+00|  3.9992e-09|  7.6965e-01|  5.0000e-01|  5.0000e-01|  5.0000e-01|   -5.884565|   -5.981553|   -6.587007|   -6.198200|   -6.142110|   -8.635389|    2.052108|
|         187|  6.9314e+00|  3.9991e-09|  7.6965e-01|  5.0000e-01|  5.0000e-01|  5.0000e-01|   -5.885257|   -5.982339|   -6.587296|   -6.198716|   -6.142698|   -8.635533|    2.052140|
|         188|  6.9299e+00|  3.9991e-09|  7.6965e-01|  5.0000e-01|  5.0000e-01|  5.0000e-01|   -5.885948|   -5.983126|   -6.587585|   -6.199229|   -6.143285|   -8.635676|    2.052171|
|         189|  6.9282e+00|  3.9991e-09|  7.6965e-01|  5.0000e-01|  5.0000e-01|  5.0000e-01|   -5.886638|   -5.983913|   -6.587872|   -6.199741|   -6.143872|   -8.635818|    2.052203|
|         190|  6.9267e+00|  3.9991e-09|  7.6965e-01|  5.0000e-01|  5.0000e-01|  5.0000e-01|   -5.887327|   -5.984701|   -6.588160|   -6.200250|   -6.144459|   -8.635957|    2.052235|
|         191|  6.9256e+00|  3.9990e-09|  7.6965e-01|  5.0000e-01|  5.0000e-01|  5.0000e-01|   -5.888014|   -5.985488|   -6.588447|   -6.200757|   -6.145046|   -8.636095|    2.052267|
|         192|  6.9243e+00|  3.9990e-09|  7.6965e-01|  5.0000e-01|  5.0000e-01|  5.0000e-01|   -5.888700|   -5.986276|   -6.588733|   -6.201262|   -6.145632|   -8.636231|    2.052299|
|         193|  6.9224e+00|  3.9990e-09|  7.6965e-01|  5.0000e-01|  5.0000e-01|  5.0000e-01|   -5.889384|   -5.987064|   -6.589019|   -6.201765|   -6.146219|   -8.636366|    2.052331|
|         194|  6.9211e+00|  3.9990e-09|  7.6965e-01|  5.0000e-01|  5.0000e-01|  5.0000e-01|   -5.890067|   -5.987852|   -6.589304|   -6.202266|   -6.146804|   -8.636499|    2.052363|
|         195|  6.9194e+00|  3.9989e-09|  7.6965e-01|  5.0000e-01|  5.0000e-01|  5.0000e-01|   -5.890748|   -5.988641|   -6.589588|   -6.202764|   -6.147390|   -8.636630|    2.052395|
|         196|  6.9185e+00|  3.9989e-09|  7.6965e-01|  5.0000e-01|  5.0000e-01|  5.0000e-01|   -5.891427|   -5.989429|   -6.589872|   -6.203260|   -6.147975|   -8.636759|    2.052427|
|         197|  6.9174e+00|  3.9989e-09|  7.6965e-01|  5.0000e-01|  5.0000e-01|  5.0000e-01|   -5.892105|   -5.990217|   -6.590155|   -6.203754|   -6.148560|   -8.636886|    2.052459|
|         198|  6.9157e+00|  3.9989e-09|  7.6965e-01|  5.0000e-01|  5.0000e-01|  5.0000e-01|   -5.892781|   -5.991005|   -6.590437|   -6.204245|   -6.149144|   -8.637012|    2.052491|
|         199|  6.9144e+00|  3.9988e-09|  7.6965e-01|  5.0000e-01|  5.0000e-01|  5.0000e-01|   -5.893455|   -5.991793|   -6.590718|   -6.204733|   -6.149728|   -8.637136|    2.052523|
|         200|  6.9129e+00|  3.9988e-09|  7.6965e-01|  5.0000e-01|  5.0000e-01|  5.0000e-01|   -5.894127|   -5.992581|   -6.590997|   -6.205219|   -6.150311|   -8.637258|    2.052555|
|         201|  6.9110e+00|  3.9988e-09|  7.6965e-01|  5.0000e-01|  5.0000e-01|  5.0000e-01|   -5.894796|   -5.993368|   -6.591277|   -6.205702|   -6.150893|   -8.637379|    2.052588|
|         202|  6.9095e+00|  3.9988e-09|  7.6965e-01|  5.0000e-01|  5.0000e-01|  5.0000e-01|   -5.895463|   -5.994155|   -6.591555|   -6.206182|   -6.151474|   -8.637497|    2.052620|
|         203|  6.9102e+00|  3.9987e-09|  7.6965e-01|  5.0000e-01|  5.0000e-01|  5.0000e-01|   -5.896128|   -5.994942|   -6.591832|   -6.206659|   -6.152055|   -8.637614|    2.052652|
|         204|  6.9103e+00|  3.9987e-09|  7.6965e-01|  5.0000e-01|  5.0000e-01|  5.0000e-01|   -5.896791|   -5.995729|   -6.592109|   -6.207133|   -6.152635|   -8.637729|    2.052684|
|         205|  6.9093e+00|  3.9987e-09|  7.6965e-01|  5.0000e-01|  5.0000e-01|  5.0000e-01|   -5.897452|   -5.996515|   -6.592385|   -6.207604|   -6.153214|   -8.637842|    2.052717|
|         206|  6.9077e+00|  3.9987e-09|  7.6965e-01|  5.0000e-01|  5.0000e-01|  5.0000e-01|   -5.898111|   -5.997300|   -6.592661|   -6.208073|   -6.153793|   -8.637953|    2.052749|
|         207|  6.9065e+00|  3.9986e-09|  7.6965e-01|  5.0000e-01|  5.0000e-01|  5.0000e-01|   -5.898768|   -5.998085|   -6.592936|   -6.208539|   -6.154371|   -8.638062|    2.052781|
|         208|  6.9052e+00|  3.9986e-09|  7.6965e-01|  5.0000e-01|  5.0000e-01|  5.0000e-01|   -5.899422|   -5.998870|   -6.593211|   -6.209003|   -6.154948|   -8.638170|    2.052814|
|         209|  6.9038e+00|  3.9986e-09|  7.6965e-01|  5.0000e-01|  5.0000e-01|  5.0000e-01|   -5.900074|   -5.999654|   -6.593485|   -6.209463|   -6.155525|   -8.638275|    2.052846|
|         210|  6.9028e+00|  3.9986e-09|  7.6965e-01|  5.0000e-01|  5.0000e-01|  5.0000e-01|   -5.900724|   -6.000437|   -6.593758|   -6.209921|   -6.156101|   -8.638379|    2.052878|
|         211|  6.9012e+00|  3.9985e-09|  7.6965e-01|  5.0000e-01|  5.0000e-01|  5.0000e-01|   -5.901371|   -6.001220|   -6.594030|   -6.210375|   -6.156676|   -8.638481|    2.052911|
|         212|  6.8995e+00|  3.9985e-09|  7.6965e-01|  5.0000e-01|  5.0000e-01|  5.0000e-01|   -5.902016|   -6.002002|   -6.594301|   -6.210827|   -6.157250|   -8.638581|    2.052943|
|         213|  6.8984e+00|  3.9985e-09|  7.6965e-01|  5.0000e-01|  5.0000e-01|  5.0000e-01|   -5.902658|   -6.002783|   -6.594572|   -6.211276|   -6.157824|   -8.638679|    2.052976|
|         214|  6.8971e+00|  3.9985e-09|  7.6965e-01|  5.0000e-01|  5.0000e-01|  5.0000e-01|   -5.903298|   -6.003563|   -6.594841|   -6.211722|   -6.158396|   -8.638775|    2.053008|
|         215|  6.8964e+00|  3.9984e-09|  7.6965e-01|  5.0000e-01|  5.0000e-01|  5.0000e-01|   -5.903936|   -6.004343|   -6.595110|   -6.212165|   -6.158968|   -8.638869|    2.053041|
|         216|  6.8953e+00|  3.9984e-09|  7.6965e-01|  5.0000e-01|  5.0000e-01|  5.0000e-01|   -5.904570|   -6.005121|   -6.595378|   -6.212605|   -6.159539|   -8.638962|    2.053073|
|         217|  6.8944e+00|  3.9984e-09|  7.6965e-01|  5.0000e-01|  5.0000e-01|  5.0000e-01|   -5.905202|   -6.005898|   -6.595645|   -6.213041|   -6.160108|   -8.639052|    2.053106|
|         218|  6.8929e+00|  3.9984e-09|  7.6965e-01|  5.0000e-01|  5.0000e-01|  5.0000e-01|   -5.905831|   -6.006674|   -6.595911|   -6.213475|   -6.160676|   -8.639141|    2.053138|
|         219|  6.8914e+00|  3.9983e-09|  7.6965e-01|  5.0000e-01|  5.0000e-01|  5.0000e-01|   -5.906457|   -6.007449|   -6.596175|   -6.213905|   -6.161243|   -8.639227|    2.053171|
|         220|  6.8902e+00|  3.9983e-09|  7.6965e-01|  5.0000e-01|  5.0000e-01|  5.0000e-01|   -5.907079|   -6.008223|   -6.596439|   -6.214331|   -6.161809|   -8.639312|    2.053204|
|         221|  6.8890e+00|  3.9983e-09|  7.6965e-01|  5.0000e-01|  5.0000e-01|  5.0000e-01|   -5.907699|   -6.008995|   -6.596701|   -6.214754|   -6.162373|   -8.639395|    2.053236|
|         222|  6.8880e+00|  3.9983e-09|  7.6965e-01|  5.0000e-01|  5.0000e-01|  5.0000e-01|   -5.908316|   -6.009766|   -6.596963|   -6.215174|   -6.162936|   -8.639475|    2.053269|
|         223|  6.8867e+00|  3.9982e-09|  7.6965e-01|  5.0000e-01|  5.0000e-01|  5.0000e-01|   -5.908929|   -6.010536|   -6.597223|   -6.215590|   -6.163497|   -8.639554|    2.053301|
|         224|  6.8853e+00|  3.9982e-09|  7.6965e-01|  5.0000e-01|  5.0000e-01|  5.0000e-01|   -5.909538|   -6.011304|   -6.597482|   -6.216002|   -6.164057|   -8.639631|    2.053334|
|         225|  6.8842e+00|  3.9982e-09|  7.6965e-01|  5.0000e-01|  5.0000e-01|  5.0000e-01|   -5.910145|   -6.012070|   -6.597740|   -6.216411|   -6.164616|   -8.639706|    2.053367|
|         226|  6.8828e+00|  3.9982e-09|  7.6965e-01|  5.0000e-01|  5.0000e-01|  5.0000e-01|   -5.910748|   -6.012834|   -6.597997|   -6.216816|   -6.165172|   -8.639779|    2.053399|
|         227|  6.8815e+00|  3.9981e-09|  7.6965e-01|  5.0000e-01|  5.0000e-01|  5.0000e-01|   -5.911347|   -6.013597|   -6.598252|   -6.217217|   -6.165727|   -8.639850|    2.053432|
|         228|  6.8807e+00|  3.9981e-09|  7.6965e-01|  5.0000e-01|  5.0000e-01|  5.0000e-01|   -5.911942|   -6.014358|   -6.598506|   -6.217615|   -6.166280|   -8.639919|    2.053465|
|         229|  6.8796e+00|  3.9981e-09|  7.6965e-01|  5.0000e-01|  5.0000e-01|  5.0000e-01|   -5.912534|   -6.015118|   -6.598760|   -6.218008|   -6.166832|   -8.639986|    2.053498|
|         230|  6.8786e+00|  3.9981e-09|  7.6965e-01|  5.0000e-01|  5.0000e-01|  5.0000e-01|   -5.913122|   -6.015875|   -6.599011|   -6.218398|   -6.167381|   -8.640051|    2.053530|
|         231|  6.8771e+00|  3.9980e-09|  7.6965e-01|  5.0000e-01|  5.0000e-01|  5.0000e-01|   -5.913707|   -6.016630|   -6.599262|   -6.218784|   -6.167929|   -8.640115|    2.053563|
|         232|  6.8759e+00|  3.9980e-09|  7.6965e-01|  5.0000e-01|  5.0000e-01|  5.0000e-01|   -5.914287|   -6.017383|   -6.599511|   -6.219167|   -6.168475|   -8.640176|    2.053596|
|         233|  6.8749e+00|  3.9980e-09|  7.6965e-01|  5.0000e-01|  5.0000e-01|  5.0000e-01|   -5.914863|   -6.018135|   -6.599759|   -6.219545|   -6.169019|   -8.640235|    2.053629|
|         234|  6.8737e+00|  3.9980e-09|  7.6965e-01|  5.0000e-01|  5.0000e-01|  5.0000e-01|   -5.915436|   -6.018883|   -6.600006|   -6.219919|   -6.169561|   -8.640293|    2.053661|
|         235|  6.8726e+00|  3.9979e-09|  7.6965e-01|  5.0000e-01|  5.0000e-01|  5.0000e-01|   -5.916004|   -6.019630|   -6.600251|   -6.220290|   -6.170101|   -8.640348|    2.053694|
|         236|  6.8715e+00|  3.9979e-09|  7.6965e-01|  5.0000e-01|  5.0000e-01|  5.0000e-01|   -5.916568|   -6.020374|   -6.600495|   -6.220656|   -6.170639|   -8.640402|    2.053727|
|         237|  6.8705e+00|  3.9979e-09|  7.6965e-01|  5.0000e-01|  5.0000e-01|  5.0000e-01|   -5.917128|   -6.021116|   -6.600738|   -6.221018|   -6.171175|   -8.640453|    2.053760|
|         238|  6.8692e+00|  3.9979e-09|  7.6965e-01|  5.0000e-01|  5.0000e-01|  5.0000e-01|   -5.917684|   -6.021855|   -6.600980|   -6.221376|   -6.171709|   -8.640503|    2.053792|
|         239|  6.8678e+00|  3.9978e-09|  7.6965e-01|  5.0000e-01|  5.0000e-01|  5.0000e-01|   -5.918235|   -6.022592|   -6.601220|   -6.221730|   -6.172241|   -8.640551|    2.053825|
|         240|  6.8663e+00|  3.9978e-09|  7.6965e-01|  5.0000e-01|  5.0000e-01|  5.0000e-01|   -5.918782|   -6.023326|   -6.601459|   -6.222080|   -6.172771|   -8.640596|    2.053858|
|         241|  6.8654e+00|  3.9978e-09|  7.6965e-01|  5.0000e-01|  5.0000e-01|  5.0000e-01|   -5.919325|   -6.024058|   -6.601697|   -6.222425|   -6.173298|   -8.640640|    2.053891|
|         242|  6.8644e+00|  3.9978e-09|  7.6965e-01|  5.0000e-01|  5.0000e-01|  5.0000e-01|   -5.919862|   -6.024786|   -6.601933|   -6.222766|   -6.173823|   -8.640682|    2.053924|
|         243|  6.8634e+00|  3.9977e-09|  7.6965e-01|  5.0000e-01|  5.0000e-01|  5.0000e-01|   -5.920396|   -6.025512|   -6.602168|   -6.223103|   -6.174345|   -8.640721|    2.053957|
|         244|  6.8623e+00|  3.9977e-09|  7.6965e-01|  5.0000e-01|  5.0000e-01|  5.0000e-01|   -5.920924|   -6.026235|   -6.602402|   -6.223436|   -6.174866|   -8.640759|    2.053989|
|         245|  6.8612e+00|  3.9977e-09|  7.6965e-01|  5.0000e-01|  5.0000e-01|  5.0000e-01|   -5.921448|   -6.026954|   -6.602634|   -6.223764|   -6.175383|   -8.640795|    2.054022|
|         246|  6.8597e+00|  3.9977e-09|  7.6965e-01|  5.0000e-01|  5.0000e-01|  5.0000e-01|   -5.921968|   -6.027671|   -6.602865|   -6.224088|   -6.175899|   -8.640829|    2.054055|
|         247|  6.8588e+00|  3.9976e-09|  7.6965e-01|  5.0000e-01|  5.0000e-01|  5.0000e-01|   -5.922482|   -6.028384|   -6.603094|   -6.224407|   -6.176412|   -8.640861|    2.054088|
|         248|  6.8578e+00|  3.9976e-09|  7.6965e-01|  5.0000e-01|  5.0000e-01|  5.0000e-01|   -5.922991|   -6.029094|   -6.603322|   -6.224722|   -6.176922|   -8.640891|    2.054121|
|         249|  6.8567e+00|  3.9976e-09|  7.6965e-01|  5.0000e-01|  5.0000e-01|  5.0000e-01|   -5.923495|   -6.029800|   -6.603548|   -6.225032|   -6.177429|   -8.640919|    2.054154|
|         250|  6.8553e+00|  3.9976e-09|  7.6965e-01|  5.0000e-01|  5.0000e-01|  5.0000e-01|   -5.923994|   -6.030503|   -6.603773|   -6.225338|   -6.177934|   -8.640945|    2.054186|
|         251|  6.8540e+00|  3.9975e-09|  7.6965e-01|  5.0000e-01|  5.0000e-01|  5.0000e-01|   -5.924488|   -6.031203|   -6.603995|   -6.225638|   -6.178435|   -8.640970|    2.054219|
|         252|  6.8526e+00|  3.9975e-09|  7.6965e-01|  5.0000e-01|  5.0000e-01|  5.0000e-01|   -5.924976|   -6.031898|   -6.604217|   -6.225934|   -6.178934|   -8.640992|    2.054252|
|         253|  6.8511e+00|  3.9975e-09|  7.6965e-01|  5.0000e-01|  5.0000e-01|  5.0000e-01|   -5.925459|   -6.032590|   -6.604436|   -6.226225|   -6.179429|   -8.641012|    2.054285|
|         254|  6.8502e+00|  3.9975e-09|  7.6965e-01|  5.0000e-01|  5.0000e-01|  5.0000e-01|   -5.925936|   -6.033278|   -6.604654|   -6.226510|   -6.179922|   -8.641031|    2.054318|
|         255|  6.8490e+00|  3.9974e-09|  7.6965e-01|  5.0000e-01|  5.0000e-01|  5.0000e-01|   -5.926408|   -6.033962|   -6.604870|   -6.226790|   -6.180411|   -8.641048|    2.054351|
|         256|  6.8479e+00|  3.9974e-09|  7.6965e-01|  5.0000e-01|  5.0000e-01|  5.0000e-01|   -5.926873|   -6.034642|   -6.605084|   -6.227066|   -6.180897|   -8.641062|    2.054383|
|         257|  6.8468e+00|  3.9974e-09|  7.6965e-01|  5.0000e-01|  5.0000e-01|  5.0000e-01|   -5.927334|   -6.035318|   -6.605297|   -6.227337|   -6.181380|   -8.641075|    2.054416|
|         258|  6.8456e+00|  3.9974e-09|  7.6965e-01|  5.0000e-01|  5.0000e-01|  5.0000e-01|   -5.927788|   -6.035989|   -6.605507|   -6.227602|   -6.181859|   -8.641086|    2.054449|
|         259|  6.8445e+00|  3.9973e-09|  7.6965e-01|  5.0000e-01|  5.0000e-01|  5.0000e-01|   -5.928236|   -6.036656|   -6.605715|   -6.227862|   -6.182335|   -8.641094|    2.054482|
|         260|  6.8435e+00|  3.9973e-09|  7.6965e-01|  5.0000e-01|  5.0000e-01|  5.0000e-01|   -5.928679|   -6.037318|   -6.605922|   -6.228117|   -6.182808|   -8.641101|    2.054515|
|         261|  6.8419e+00|  3.9973e-09|  7.6965e-01|  5.0000e-01|  5.0000e-01|  5.0000e-01|   -5.929115|   -6.037976|   -6.606127|   -6.228367|   -6.183277|   -8.641106|    2.054547|
|         262|  6.8410e+00|  3.9973e-09|  7.6965e-01|  5.0000e-01|  5.0000e-01|  5.0000e-01|   -5.929546|   -6.038629|   -6.606330|   -6.228612|   -6.183743|   -8.641109|    2.054580|
|         263|  6.8399e+00|  3.9973e-09|  7.6965e-01|  5.0000e-01|  5.0000e-01|  5.0000e-01|   -5.929970|   -6.039278|   -6.606531|   -6.228851|   -6.184204|   -8.641110|    2.054613|
|         264|  6.8388e+00|  3.9972e-09|  7.6965e-01|  5.0000e-01|  5.0000e-01|  5.0000e-01|   -5.930387|   -6.039921|   -6.606730|   -6.229085|   -6.184663|   -8.641110|    2.054646|
|         265|  6.8379e+00|  3.9972e-09|  7.6965e-01|  5.0000e-01|  5.0000e-01|  5.0000e-01|   -5.930799|   -6.040560|   -6.606928|   -6.229314|   -6.185117|   -8.641107|    2.054679|
|         266|  6.8370e+00|  3.9972e-09|  7.6965e-01|  5.0000e-01|  5.0000e-01|  5.0000e-01|   -5.931204|   -6.041193|   -6.607123|   -6.229538|   -6.185568|   -8.641102|    2.054711|
|         267|  6.8365e+00|  3.9972e-09|  7.6965e-01|  5.0000e-01|  5.0000e-01|  5.0000e-01|   -5.931603|   -6.041822|   -6.607317|   -6.229756|   -6.186015|   -8.641096|    2.054744|
|         268|  6.8354e+00|  3.9971e-09|  7.6965e-01|  5.0000e-01|  5.0000e-01|  5.0000e-01|   -5.931996|   -6.042445|   -6.607510|   -6.229969|   -6.186458|   -8.641088|    2.054777|
|         269|  6.8343e+00|  3.9971e-09|  7.6965e-01|  5.0000e-01|  5.0000e-01|  5.0000e-01|   -5.932383|   -6.043063|   -6.607700|   -6.230177|   -6.186898|   -8.641077|    2.054810|
|         270|  6.8329e+00|  3.9971e-09|  7.6965e-01|  5.0000e-01|  5.0000e-01|  5.0000e-01|   -5.932762|   -6.043675|   -6.607888|   -6.230380|   -6.187333|   -8.641065|    2.054842|
|         271|  6.8316e+00|  3.9971e-09|  7.6965e-01|  5.0000e-01|  5.0000e-01|  5.0000e-01|   -5.933135|   -6.044282|   -6.608074|   -6.230578|   -6.187765|   -8.641051|    2.054875|
|         272|  6.8307e+00|  3.9970e-09|  7.6965e-01|  5.0000e-01|  5.0000e-01|  5.0000e-01|   -5.933502|   -6.044884|   -6.608258|   -6.230770|   -6.188193|   -8.641035|    2.054908|
|         273|  6.8299e+00|  3.9970e-09|  7.6965e-01|  5.0000e-01|  5.0000e-01|  5.0000e-01|   -5.933862|   -6.045480|   -6.608440|   -6.230956|   -6.188616|   -8.641017|    2.054941|
|         274|  6.8290e+00|  3.9970e-09|  7.6965e-01|  5.0000e-01|  5.0000e-01|  5.0000e-01|   -5.934216|   -6.046070|   -6.608621|   -6.231138|   -6.189036|   -8.640998|    2.054973|
|         275|  6.8280e+00|  3.9970e-09|  7.6965e-01|  5.0000e-01|  5.0000e-01|  5.0000e-01|   -5.934564|   -6.046655|   -6.608800|   -6.231315|   -6.189453|   -8.640976|    2.055006|
|         276|  6.8289e+00|  3.9969e-09|  7.6965e-01|  5.0000e-01|  5.0000e-01|  5.0000e-01|   -5.934904|   -6.047235|   -6.608978|   -6.231487|   -6.189865|   -8.640953|    2.055039|
|         277|  6.8291e+00|  3.9969e-09|  7.6965e-01|  5.0000e-01|  5.0000e-01|  5.0000e-01|   -5.935238|   -6.047808|   -6.609153|   -6.231653|   -6.190273|   -8.640927|    2.055072|
|         278|  6.8292e+00|  3.9969e-09|  7.6965e-01|  5.0000e-01|  5.0000e-01|  5.0000e-01|   -5.935566|   -6.048376|   -6.609326|   -6.231814|   -6.190677|   -8.640900|    2.055104|
|         279|  6.8285e+00|  3.9969e-09|  7.6965e-01|  5.0000e-01|  5.0000e-01|  5.0000e-01|   -5.935886|   -6.048937|   -6.609498|   -6.231969|   -6.191077|   -8.640871|    2.055137|
|         280|  6.8274e+00|  3.9968e-09|  7.6965e-01|  5.0000e-01|  5.0000e-01|  5.0000e-01|   -5.936199|   -6.049492|   -6.609666|   -6.232119|   -6.191472|   -8.640840|    2.055169|
|         281|  6.8266e+00|  3.9968e-09|  7.6965e-01|  5.0000e-01|  5.0000e-01|  5.0000e-01|   -5.936505|   -6.050041|   -6.609833|   -6.232263|   -6.191863|   -8.640808|    2.055202|
|         282|  6.8253e+00|  3.9968e-09|  7.6965e-01|  5.0000e-01|  5.0000e-01|  5.0000e-01|   -5.936804|   -6.050583|   -6.609997|   -6.232401|   -6.192249|   -8.640773|    2.055235|
|         283|  6.8241e+00|  3.9968e-09|  7.6965e-01|  5.0000e-01|  5.0000e-01|  5.0000e-01|   -5.937095|   -6.051118|   -6.610159|   -6.232534|   -6.192630|   -8.640737|    2.055267|
|         284|  6.8231e+00|  3.9967e-09|  7.6965e-01|  5.0000e-01|  5.0000e-01|  5.0000e-01|   -5.937380|   -6.051647|   -6.610318|   -6.232661|   -6.193006|   -8.640699|    2.055300|
|         285|  6.8227e+00|  3.9967e-09|  7.6965e-01|  5.0000e-01|  5.0000e-01|  5.0000e-01|   -5.937656|   -6.052169|   -6.610476|   -6.232782|   -6.193378|   -8.640659|    2.055333|
|         286|  6.8216e+00|  3.9967e-09|  7.6965e-01|  5.0000e-01|  5.0000e-01|  5.0000e-01|   -5.937926|   -6.052685|   -6.610631|   -6.232898|   -6.193745|   -8.640617|    2.055365|
|         287|  6.8210e+00|  3.9967e-09|  7.6965e-01|  5.0000e-01|  5.0000e-01|  5.0000e-01|   -5.938188|   -6.053193|   -6.610783|   -6.233008|   -6.194108|   -8.640574|    2.055398|
|         288|  6.8199e+00|  3.9966e-09|  7.6965e-01|  5.0000e-01|  5.0000e-01|  5.0000e-01|   -5.938443|   -6.053695|   -6.610934|   -6.233112|   -6.194465|   -8.640529|    2.055430|
|         289|  6.8190e+00|  3.9966e-09|  7.6965e-01|  5.0000e-01|  5.0000e-01|  5.0000e-01|   -5.938690|   -6.054190|   -6.611081|   -6.233210|   -6.194818|   -8.640482|    2.055463|
|         290|  6.8180e+00|  3.9966e-09|  7.6965e-01|  5.0000e-01|  5.0000e-01|  5.0000e-01|   -5.938930|   -6.054677|   -6.611227|   -6.233303|   -6.195166|   -8.640433|    2.055495|
|         291|  6.8168e+00|  3.9966e-09|  7.6965e-01|  5.0000e-01|  5.0000e-01|  5.0000e-01|   -5.939162|   -6.055157|   -6.611369|   -6.233390|   -6.195509|   -8.640382|    2.055528|
|         292|  6.8159e+00|  3.9965e-09|  7.6965e-01|  5.0000e-01|  5.0000e-01|  5.0000e-01|   -5.939387|   -6.055630|   -6.611510|   -6.233471|   -6.195847|   -8.640330|    2.055560|
|         293|  6.8147e+00|  3.9965e-09|  7.6965e-01|  5.0000e-01|  5.0000e-01|  5.0000e-01|   -5.939604|   -6.056096|   -6.611647|   -6.233546|   -6.196180|   -8.640276|    2.055593|
|         294|  6.8137e+00|  3.9965e-09|  7.6965e-01|  5.0000e-01|  5.0000e-01|  5.0000e-01|   -5.939813|   -6.056554|   -6.611783|   -6.233616|   -6.196508|   -8.640220|    2.055625|
|         295|  6.8125e+00|  3.9965e-09|  7.6965e-01|  5.0000e-01|  5.0000e-01|  5.0000e-01|   -5.940015|   -6.057005|   -6.611917|   -6.233680|   -6.196831|   -8.640163|    2.055657|
|         296|  6.8111e+00|  3.9964e-09|  7.6965e-01|  5.0000e-01|  5.0000e-01|  5.0000e-01|   -5.940210|   -6.057448|   -6.612048|   -6.233738|   -6.197148|   -8.640104|    2.055690|
|         297|  6.8097e+00|  3.9964e-09|  7.6965e-01|  5.0000e-01|  5.0000e-01|  5.0000e-01|   -5.940397|   -6.057883|   -6.612177|   -6.233791|   -6.197461|   -8.640043|    2.055722|
|         298|  6.8086e+00|  3.9964e-09|  7.6965e-01|  5.0000e-01|  5.0000e-01|  5.0000e-01|   -5.940576|   -6.058311|   -6.612304|   -6.233838|   -6.197769|   -8.639980|    2.055755|
|         299|  6.8070e+00|  3.9964e-09|  7.6965e-01|  5.0000e-01|  5.0000e-01|  5.0000e-01|   -5.940748|   -6.058731|   -6.612429|   -6.233880|   -6.198072|   -8.639915|    2.055787|
|         300|  6.8061e+00|  3.9963e-09|  7.6965e-01|  5.0000e-01|  5.0000e-01|  5.0000e-01|   -5.940912|   -6.059144|   -6.612551|   -6.233916|   -6.198370|   -8.639849|    2.055819|
+-----------------------------------------------------------------------+
|        File Writing Summary       |              Filename             |
+-----------------------------------------------------------------------+
|SU2 binary restart                 |restart_flow.dat                   |
|Paraview                           |flow.vtu                           |
|Paraview surface                   |surface_flow.vtu                   |
+-----------------------------------------------------------------------+
+-------------------------------------------------------------------------------------------------------------------------------------------------------------------------------------+
|  Inner_Iter|   Time(sec)|      Min DT|      Max DT|     Min CFL|     Max CFL|     Avg CFL|    rms[Rho]|   rms[RhoU]|   rms[RhoV]|   rms[RhoW]|   rms[RhoE]|     rms[nu]|          CD|
+-------------------------------------------------------------------------------------------------------------------------------------------------------------------------------------+
|         301|  6.8726e+00|  3.9963e-09|  7.6965e-01|  5.0000e-01|  5.0000e-01|  5.0000e-01|   -5.941069|   -6.059548|   -6.612671|   -6.233946|   -6.198662|   -8.639781|    2.055851|
|         302|  6.8722e+00|  3.9963e-09|  7.6965e-01|  5.0000e-01|  5.0000e-01|  5.0000e-01|   -5.941218|   -6.059944|   -6.612788|   -6.233971|   -6.198949|   -8.639712|    2.055884|
|         303|  6.8713e+00|  3.9963e-09|  7.6965e-01|  5.0000e-01|  5.0000e-01|  5.0000e-01|   -5.941359|   -6.060333|   -6.612903|   -6.233990|   -6.199231|   -8.639641|    2.055916|
|         304|  6.8701e+00|  3.9963e-09|  7.6965e-01|  5.0000e-01|  5.0000e-01|  5.0000e-01|   -5.941492|   -6.060713|   -6.613015|   -6.234004|   -6.199508|   -8.639568|    2.055948|
|         305|  6.8686e+00|  3.9962e-09|  7.6965e-01|  5.0000e-01|  5.0000e-01|  5.0000e-01|   -5.941618|   -6.061085|   -6.613125|   -6.234011|   -6.199779|   -8.639493|    2.055980|
|         306|  6.8674e+00|  3.9962e-09|  7.6965e-01|  5.0000e-01|  5.0000e-01|  5.0000e-01|   -5.941735|   -6.061448|   -6.613232|   -6.234012|   -6.200044|   -8.639417|    2.056012|
|         307|  6.8662e+00|  3.9962e-09|  7.6965e-01|  5.0000e-01|  5.0000e-01|  5.0000e-01|   -5.941845|   -6.061804|   -6.613337|   -6.234008|   -6.200303|   -8.639339|    2.056045|
|         308|  6.8651e+00|  3.9962e-09|  7.6965e-01|  5.0000e-01|  5.0000e-01|  5.0000e-01|   -5.941946|   -6.062150|   -6.613439|   -6.233998|   -6.200557|   -8.639259|    2.056077|
|         309|  6.8639e+00|  3.9961e-09|  7.6965e-01|  5.0000e-01|  5.0000e-01|  5.0000e-01|   -5.942039|   -6.062489|   -6.613538|   -6.233982|   -6.200805|   -8.639178|    2.056109|
|         310|  6.8627e+00|  3.9961e-09|  7.6965e-01|  5.0000e-01|  5.0000e-01|  5.0000e-01|   -5.942125|   -6.062818|   -6.613636|   -6.233961|   -6.201048|   -8.639095|    2.056141|
|         311|  6.8613e+00|  3.9961e-09|  7.6965e-01|  5.0000e-01|  5.0000e-01|  5.0000e-01|   -5.942204|   -6.063140|   -6.613731|   -6.233935|   -6.201286|   -8.639011|    2.056173|
|         312|  6.8601e+00|  3.9961e-09|  7.6965e-01|  5.0000e-01|  5.0000e-01|  5.0000e-01|   -5.942274|   -6.063452|   -6.613824|   -6.233903|   -6.201518|   -8.638925|    2.056205|
|         313|  6.8590e+00|  3.9960e-09|  7.6965e-01|  5.0000e-01|  5.0000e-01|  5.0000e-01|   -5.942338|   -6.063757|   -6.613914|   -6.233866|   -6.201745|   -8.638837|    2.056237|
|         314|  6.8581e+00|  3.9960e-09|  7.6965e-01|  5.0000e-01|  5.0000e-01|  5.0000e-01|   -5.942393|   -6.064052|   -6.614002|   -6.233824|   -6.201966|   -8.638748|    2.056269|
|         315|  6.8572e+00|  3.9960e-09|  7.6965e-01|  5.0000e-01|  5.0000e-01|  5.0000e-01|   -5.942441|   -6.064339|   -6.614088|   -6.233776|   -6.202182|   -8.638657|    2.056301|
|         316|  6.8556e+00|  3.9960e-09|  7.6965e-01|  5.0000e-01|  5.0000e-01|  5.0000e-01|   -5.942481|   -6.064617|   -6.614171|   -6.233722|   -6.202392|   -8.638565|    2.056332|
|         317|  6.8542e+00|  3.9959e-09|  7.6965e-01|  5.0000e-01|  5.0000e-01|  5.0000e-01|   -5.942513|   -6.064886|   -6.614252|   -6.233663|   -6.202597|   -8.638471|    2.056364|
|         318|  6.8529e+00|  3.9959e-09|  7.6965e-01|  5.0000e-01|  5.0000e-01|  5.0000e-01|   -5.942537|   -6.065146|   -6.614330|   -6.233599|   -6.202795|   -8.638376|    2.056396|
|         319|  6.8521e+00|  3.9959e-09|  7.6965e-01|  5.0000e-01|  5.0000e-01|  5.0000e-01|   -5.942554|   -6.065398|   -6.614406|   -6.233530|   -6.202989|   -8.638279|    2.056428|
|         320|  6.8513e+00|  3.9959e-09|  7.6965e-01|  5.0000e-01|  5.0000e-01|  5.0000e-01|   -5.942564|   -6.065640|   -6.614479|   -6.233455|   -6.203176|   -8.638180|    2.056460|
|         321|  6.8502e+00|  3.9958e-09|  7.6965e-01|  5.0000e-01|  5.0000e-01|  5.0000e-01|   -5.942565|   -6.065874|   -6.614550|   -6.233375|   -6.203358|   -8.638080|    2.056491|
|         322|  6.8490e+00|  3.9958e-09|  7.6965e-01|  5.0000e-01|  5.0000e-01|  5.0000e-01|   -5.942559|   -6.066099|   -6.614618|   -6.233289|   -6.203534|   -8.637979|    2.056523|
|         323|  6.8478e+00|  3.9958e-09|  7.6965e-01|  5.0000e-01|  5.0000e-01|  5.0000e-01|   -5.942544|   -6.066315|   -6.614684|   -6.233198|   -6.203704|   -8.637876|    2.056555|
|         324|  6.8469e+00|  3.9958e-09|  7.6965e-01|  5.0000e-01|  5.0000e-01|  5.0000e-01|   -5.942522|   -6.066521|   -6.614748|   -6.233101|   -6.203868|   -8.637771|    2.056586|
|         325|  6.8461e+00|  3.9957e-09|  7.6965e-01|  5.0000e-01|  5.0000e-01|  5.0000e-01|   -5.942493|   -6.066719|   -6.614809|   -6.232999|   -6.204026|   -8.637665|    2.056618|
|         326|  6.8448e+00|  3.9957e-09|  7.6965e-01|  5.0000e-01|  5.0000e-01|  5.0000e-01|   -5.942455|   -6.066907|   -6.614867|   -6.232892|   -6.204179|   -8.637557|    2.056649|
|         327|  6.8438e+00|  3.9957e-09|  7.6965e-01|  5.0000e-01|  5.0000e-01|  5.0000e-01|   -5.942410|   -6.067087|   -6.614923|   -6.232780|   -6.204326|   -8.637449|    2.056681|
|         328|  6.8429e+00|  3.9957e-09|  7.6965e-01|  5.0000e-01|  5.0000e-01|  5.0000e-01|   -5.942357|   -6.067257|   -6.614977|   -6.232663|   -6.204466|   -8.637338|    2.056712|
|         329|  6.8425e+00|  3.9956e-09|  7.6965e-01|  5.0000e-01|  5.0000e-01|  5.0000e-01|   -5.942297|   -6.067419|   -6.615029|   -6.232540|   -6.204601|   -8.637227|    2.056744|
|         330|  6.8418e+00|  3.9956e-09|  7.6965e-01|  5.0000e-01|  5.0000e-01|  5.0000e-01|   -5.942229|   -6.067572|   -6.615079|   -6.232412|   -6.204731|   -8.637114|    2.056775|
|         331|  6.8408e+00|  3.9956e-09|  7.6965e-01|  5.0000e-01|  5.0000e-01|  5.0000e-01|   -5.942153|   -6.067715|   -6.615126|   -6.232279|   -6.204853|   -8.637000|    2.056806|
|         332|  6.8397e+00|  3.9956e-09|  7.6965e-01|  5.0000e-01|  5.0000e-01|  5.0000e-01|   -5.942069|   -6.067849|   -6.615171|   -6.232140|   -6.204970|   -8.636884|    2.056838|
|         333|  6.8384e+00|  3.9956e-09|  7.6965e-01|  5.0000e-01|  5.0000e-01|  5.0000e-01|   -5.941978|   -6.067974|   -6.615213|   -6.231997|   -6.205081|   -8.636767|    2.056869|
|         334|  6.8375e+00|  3.9955e-09|  7.6965e-01|  5.0000e-01|  5.0000e-01|  5.0000e-01|   -5.941878|   -6.068089|   -6.615252|   -6.231847|   -6.205185|   -8.636648|    2.056900|
|         335|  6.8367e+00|  3.9955e-09|  7.6965e-01|  5.0000e-01|  5.0000e-01|  5.0000e-01|   -5.941771|   -6.068196|   -6.615288|   -6.231693|   -6.205284|   -8.636528|    2.056931|
|         336|  6.8355e+00|  3.9955e-09|  7.6965e-01|  5.0000e-01|  5.0000e-01|  5.0000e-01|   -5.941657|   -6.068293|   -6.615322|   -6.231535|   -6.205377|   -8.636407|    2.056963|
|         337|  6.8344e+00|  3.9955e-09|  7.6965e-01|  5.0000e-01|  5.0000e-01|  5.0000e-01|   -5.941534|   -6.068381|   -6.615354|   -6.231371|   -6.205464|   -8.636284|    2.056994|
|         338|  6.8334e+00|  3.9954e-09|  7.6965e-01|  5.0000e-01|  5.0000e-01|  5.0000e-01|   -5.941404|   -6.068459|   -6.615383|   -6.231201|   -6.205544|   -8.636160|    2.057025|
|         339|  6.8326e+00|  3.9954e-09|  7.6965e-01|  5.0000e-01|  5.0000e-01|  5.0000e-01|   -5.941267|   -6.068529|   -6.615410|   -6.231027|   -6.205618|   -8.636035|    2.057056|
|         340|  6.8317e+00|  3.9954e-09|  7.6965e-01|  5.0000e-01|  5.0000e-01|  5.0000e-01|   -5.941122|   -6.068588|   -6.615435|   -6.230848|   -6.205687|   -8.635908|    2.057087|
|         341|  6.8305e+00|  3.9954e-09|  7.6965e-01|  5.0000e-01|  5.0000e-01|  5.0000e-01|   -5.940970|   -6.068639|   -6.615457|   -6.230664|   -6.205749|   -8.635780|    2.057118|
|         342|  6.8297e+00|  3.9953e-09|  7.6965e-01|  5.0000e-01|  5.0000e-01|  5.0000e-01|   -5.940810|   -6.068680|   -6.615477|   -6.230475|   -6.205806|   -8.635651|    2.057149|
|         343|  6.8286e+00|  3.9953e-09|  7.6965e-01|  5.0000e-01|  5.0000e-01|  5.0000e-01|   -5.940643|   -6.068712|   -6.615495|   -6.230281|   -6.205856|   -8.635520|    2.057179|
|         344|  6.8276e+00|  3.9953e-09|  7.6965e-01|  5.0000e-01|  5.0000e-01|  5.0000e-01|   -5.940468|   -6.068735|   -6.615511|   -6.230083|   -6.205901|   -8.635388|    2.057210|
|         345|  6.8267e+00|  3.9953e-09|  7.6965e-01|  5.0000e-01|  5.0000e-01|  5.0000e-01|   -5.940286|   -6.068748|   -6.615525|   -6.229879|   -6.205939|   -8.635255|    2.057241|
|         346|  6.8256e+00|  3.9952e-09|  7.6965e-01|  5.0000e-01|  5.0000e-01|  5.0000e-01|   -5.940097|   -6.068751|   -6.615536|   -6.229670|   -6.205970|   -8.635121|    2.057272|
|         347|  6.8245e+00|  3.9952e-09|  7.6965e-01|  5.0000e-01|  5.0000e-01|  5.0000e-01|   -5.939900|   -6.068746|   -6.615545|   -6.229457|   -6.205996|   -8.634985|    2.057302|
|         348|  6.8232e+00|  3.9952e-09|  7.6965e-01|  5.0000e-01|  5.0000e-01|  5.0000e-01|   -5.939696|   -6.068731|   -6.615551|   -6.229239|   -6.206016|   -8.634848|    2.057333|
|         349|  6.8221e+00|  3.9952e-09|  7.6965e-01|  5.0000e-01|  5.0000e-01|  5.0000e-01|   -5.939484|   -6.068706|   -6.615556|   -6.229016|   -6.206029|   -8.634710|    2.057364|
[...]
|        9378|  6.7731e+00|  3.7879e-09|  7.6965e-01|  5.0000e-01|  5.0000e-01|  5.0000e-01|   -5.736495|   -5.867077|   -6.455904|   -6.055015|   -6.033845|   -8.634595|    2.044145|
|        9379|  6.7731e+00|  3.7879e-09|  7.6965e-01|  5.0000e-01|  5.0000e-01|  5.0000e-01|   -5.735873|   -5.866320|   -6.455614|   -6.054484|   -6.033247|   -8.634371|    2.044116|
|        9380|  6.7731e+00|  3.7879e-09|  7.6965e-01|  5.0000e-01|  5.0000e-01|  5.0000e-01|   -5.735254|   -5.865565|   -6.455325|   -6.053956|   -6.032651|   -8.634146|    2.044087|
|        9381|  6.7731e+00|  3.7879e-09|  7.6965e-01|  5.0000e-01|  5.0000e-01|  5.0000e-01|   -5.734638|   -5.864813|   -6.455037|   -6.053430|   -6.032057|   -8.633921|    2.044058|
|        9382|  6.7731e+00|  3.7879e-09|  7.6965e-01|  5.0000e-01|  5.0000e-01|  5.0000e-01|   -5.734024|   -5.864065|   -6.454749|   -6.052907|   -6.031464|   -8.633696|    2.044030|
|        9383|  6.7731e+00|  3.7878e-09|  7.6965e-01|  5.0000e-01|  5.0000e-01|  5.0000e-01|   -5.733414|   -5.863319|   -6.454463|   -6.052387|   -6.030873|   -8.633471|    2.044001|
|        9384|  6.7730e+00|  3.7878e-09|  7.6965e-01|  5.0000e-01|  5.0000e-01|  5.0000e-01|   -5.732806|   -5.862576|   -6.454178|   -6.051870|   -6.030285|   -8.633246|    2.043973|
|        9385|  6.7730e+00|  3.7878e-09|  7.6965e-01|  5.0000e-01|  5.0000e-01|  5.0000e-01|   -5.732202|   -5.861836|   -6.453893|   -6.051355|   -6.029699|   -8.633021|    2.043944|
|        9386|  6.7730e+00|  3.7878e-09|  7.6965e-01|  5.0000e-01|  5.0000e-01|  5.0000e-01|   -5.731600|   -5.861099|   -6.453610|   -6.050843|   -6.029114|   -8.632795|    2.043916|
|        9387|  6.7730e+00|  3.7878e-09|  7.6965e-01|  5.0000e-01|  5.0000e-01|  5.0000e-01|   -5.731001|   -5.860365|   -6.453328|   -6.050334|   -6.028532|   -8.632570|    2.043889|
|        9388|  6.7730e+00|  3.7877e-09|  7.6965e-01|  5.0000e-01|  5.0000e-01|  5.0000e-01|   -5.730406|   -5.859634|   -6.453047|   -6.049828|   -6.027951|   -8.632344|    2.043861|
|        9389|  6.7730e+00|  3.7877e-09|  7.6965e-01|  5.0000e-01|  5.0000e-01|  5.0000e-01|   -5.729813|   -5.858906|   -6.452768|   -6.049324|   -6.027373|   -8.632118|    2.043833|
|        9390|  6.7730e+00|  3.7877e-09|  7.6965e-01|  5.0000e-01|  5.0000e-01|  5.0000e-01|   -5.729224|   -5.858181|   -6.452489|   -6.048824|   -6.026797|   -8.631893|    2.043806|
|        9391|  6.7730e+00|  3.7877e-09|  7.6965e-01|  5.0000e-01|  5.0000e-01|  5.0000e-01|   -5.728637|   -5.857458|   -6.452211|   -6.048326|   -6.026222|   -8.631667|    2.043779|
|        9392|  6.7729e+00|  3.7877e-09|  7.6965e-01|  5.0000e-01|  5.0000e-01|  5.0000e-01|   -5.728053|   -5.856739|   -6.451934|   -6.047831|   -6.025650|   -8.631441|    2.043752|
|        9393|  6.7729e+00|  3.7877e-09|  7.6965e-01|  5.0000e-01|  5.0000e-01|  5.0000e-01|   -5.727472|   -5.856022|   -6.451658|   -6.047338|   -6.025078|   -8.631216|    2.043725|
|        9394|  6.7729e+00|  3.7876e-09|  7.6965e-01|  5.0000e-01|  5.0000e-01|  5.0000e-01|   -5.726893|   -5.855308|   -6.451384|   -6.046848|   -6.024509|   -8.630990|    2.043698|
|        9395|  6.7729e+00|  3.7876e-09|  7.6965e-01|  5.0000e-01|  5.0000e-01|  5.0000e-01|   -5.726318|   -5.854598|   -6.451111|   -6.046361|   -6.023942|   -8.630764|    2.043671|
|        9396|  6.7729e+00|  3.7876e-09|  7.6965e-01|  5.0000e-01|  5.0000e-01|  5.0000e-01|   -5.725746|   -5.853891|   -6.450838|   -6.045877|   -6.023377|   -8.630539|    2.043645|
|        9397|  6.7729e+00|  3.7876e-09|  7.6965e-01|  5.0000e-01|  5.0000e-01|  5.0000e-01|   -5.725177|   -5.853187|   -6.450567|   -6.045395|   -6.022815|   -8.630313|    2.043618|
|        9398|  6.7729e+00|  3.7876e-09|  7.6965e-01|  5.0000e-01|  5.0000e-01|  5.0000e-01|   -5.724610|   -5.852486|   -6.450298|   -6.044916|   -6.022254|   -8.630088|    2.043592|
|        9399|  6.7728e+00|  3.7875e-09|  7.6965e-01|  5.0000e-01|  5.0000e-01|  5.0000e-01|   -5.724048|   -5.851789|   -6.450029|   -6.044440|   -6.021696|   -8.629862|    2.043566|
|        9400|  6.7728e+00|  3.7875e-09|  7.6965e-01|  5.0000e-01|  5.0000e-01|  5.0000e-01|   -5.723488|   -5.851094|   -6.449762|   -6.043967|   -6.021140|   -8.629637|    2.043541|
|        9401|  6.7728e+00|  3.7875e-09|  7.6965e-01|  5.0000e-01|  5.0000e-01|  5.0000e-01|   -5.722930|   -5.850403|   -6.449497|   -6.043496|   -6.020585|   -8.629412|    2.043515|
|        9402|  6.7728e+00|  3.7875e-09|  7.6965e-01|  5.0000e-01|  5.0000e-01|  5.0000e-01|   -5.722377|   -5.849716|   -6.449232|   -6.043028|   -6.020034|   -8.629186|    2.043490|
|        9403|  6.7728e+00|  3.7875e-09|  7.6965e-01|  5.0000e-01|  5.0000e-01|  5.0000e-01|   -5.721826|   -5.849032|   -6.448969|   -6.042564|   -6.019484|   -8.628961|    2.043464|
|        9404|  6.7728e+00|  3.7875e-09|  7.6965e-01|  5.0000e-01|  5.0000e-01|  5.0000e-01|   -5.721278|   -5.848351|   -6.448707|   -6.042102|   -6.018937|   -8.628737|    2.043439|
|        9405|  6.7728e+00|  3.7874e-09|  7.6965e-01|  5.0000e-01|  5.0000e-01|  5.0000e-01|   -5.720734|   -5.847673|   -6.448446|   -6.041643|   -6.018392|   -8.628512|    2.043414|
|        9406|  6.7728e+00|  3.7874e-09|  7.6965e-01|  5.0000e-01|  5.0000e-01|  5.0000e-01|   -5.720192|   -5.846999|   -6.448187|   -6.041186|   -6.017849|   -8.628288|    2.043389|
|        9407|  6.7728e+00|  3.7874e-09|  7.6965e-01|  5.0000e-01|  5.0000e-01|  5.0000e-01|   -5.719654|   -5.846328|   -6.447928|   -6.040732|   -6.017309|   -8.628063|    2.043365|
|        9408|  6.7727e+00|  3.7874e-09|  7.6965e-01|  5.0000e-01|  5.0000e-01|  5.0000e-01|   -5.719120|   -5.845661|   -6.447672|   -6.040282|   -6.016771|   -8.627839|    2.043340|
|        9409|  6.7727e+00|  3.7874e-09|  7.6965e-01|  5.0000e-01|  5.0000e-01|  5.0000e-01|   -5.718588|   -5.844997|   -6.447417|   -6.039835|   -6.016236|   -8.627615|    2.043316|
|        9410|  6.7727e+00|  3.7873e-09|  7.6965e-01|  5.0000e-01|  5.0000e-01|  5.0000e-01|   -5.718060|   -5.844337|   -6.447164|   -6.039391|   -6.015703|   -8.627392|    2.043292|
|        9411|  6.7727e+00|  3.7873e-09|  7.6965e-01|  5.0000e-01|  5.0000e-01|  5.0000e-01|   -5.717536|   -5.843680|   -6.446911|   -6.038950|   -6.015173|   -8.627168|    2.043268|
|        9412|  6.7727e+00|  3.7873e-09|  7.6965e-01|  5.0000e-01|  5.0000e-01|  5.0000e-01|   -5.717014|   -5.843027|   -6.446661|   -6.038513|   -6.014646|   -8.626945|    2.043244|
|        9413|  6.7727e+00|  3.7873e-09|  7.6965e-01|  5.0000e-01|  5.0000e-01|  5.0000e-01|   -5.716497|   -5.842378|   -6.446412|   -6.038078|   -6.014121|   -8.626722|    2.043220|
|        9414|  6.7726e+00|  3.7873e-09|  7.6965e-01|  5.0000e-01|  5.0000e-01|  5.0000e-01|   -5.715983|   -5.841733|   -6.446164|   -6.037647|   -6.013599|   -8.626499|    2.043197|
|        9415|  6.7726e+00|  3.7872e-09|  7.6965e-01|  5.0000e-01|  5.0000e-01|  5.0000e-01|   -5.715472|   -5.841091|   -6.445918|   -6.037220|   -6.013080|   -8.626277|    2.043174|
|        9416|  6.7726e+00|  3.7872e-09|  7.6965e-01|  5.0000e-01|  5.0000e-01|  5.0000e-01|   -5.714965|   -5.840453|   -6.445673|   -6.036795|   -6.012564|   -8.626055|    2.043150|
|        9417|  6.7726e+00|  3.7872e-09|  7.6965e-01|  5.0000e-01|  5.0000e-01|  5.0000e-01|   -5.714461|   -5.839818|   -6.445429|   -6.036373|   -6.012050|   -8.625833|    2.043128|
|        9418|  6.7726e+00|  3.7872e-09|  7.6965e-01|  5.0000e-01|  5.0000e-01|  5.0000e-01|   -5.713961|   -5.839187|   -6.445187|   -6.035954|   -6.011538|   -8.625612|    2.043105|
|        9419|  6.7725e+00|  3.7872e-09|  7.6965e-01|  5.0000e-01|  5.0000e-01|  5.0000e-01|   -5.713463|   -5.838560|   -6.444945|   -6.035538|   -6.011029|   -8.625391|    2.043082|
|        9420|  6.7725e+00|  3.7872e-09|  7.6965e-01|  5.0000e-01|  5.0000e-01|  5.0000e-01|   -5.712970|   -5.837937|   -6.444706|   -6.035125|   -6.010523|   -8.625170|    2.043060|
|        9421|  6.7725e+00|  3.7871e-09|  7.6965e-01|  5.0000e-01|  5.0000e-01|  5.0000e-01|   -5.712480|   -5.837317|   -6.444467|   -6.034715|   -6.010019|   -8.624950|    2.043037|
|        9422|  6.7725e+00|  3.7871e-09|  7.6965e-01|  5.0000e-01|  5.0000e-01|  5.0000e-01|   -5.711993|   -5.836701|   -6.444230|   -6.034309|   -6.009519|   -8.624730|    2.043015|
|        9423|  6.7725e+00|  3.7871e-09|  7.6965e-01|  5.0000e-01|  5.0000e-01|  5.0000e-01|   -5.711510|   -5.836089|   -6.443993|   -6.033905|   -6.009021|   -8.624510|    2.042993|
|        9424|  6.7725e+00|  3.7871e-09|  7.6965e-01|  5.0000e-01|  5.0000e-01|  5.0000e-01|   -5.711030|   -5.835480|   -6.443758|   -6.033505|   -6.008525|   -8.624291|    2.042972|
|        9425|  6.7725e+00|  3.7871e-09|  7.6965e-01|  5.0000e-01|  5.0000e-01|  5.0000e-01|   -5.710553|   -5.834875|   -6.443525|   -6.033107|   -6.008032|   -8.624072|    2.042950|
|        9426|  6.7724e+00|  3.7870e-09|  7.6965e-01|  5.0000e-01|  5.0000e-01|  5.0000e-01|   -5.710079|   -5.834274|   -6.443292|   -6.032712|   -6.007541|   -8.623854|    2.042929|
|        9427|  6.7724e+00|  3.7870e-09|  7.6965e-01|  5.0000e-01|  5.0000e-01|  5.0000e-01|   -5.709609|   -5.833676|   -6.443061|   -6.032320|   -6.007053|   -8.623636|    2.042907|
|        9428|  6.7724e+00|  3.7870e-09|  7.6965e-01|  5.0000e-01|  5.0000e-01|  5.0000e-01|   -5.709143|   -5.833083|   -6.442832|   -6.031931|   -6.006568|   -8.623419|    2.042886|
|        9429|  6.7724e+00|  3.7870e-09|  7.6965e-01|  5.0000e-01|  5.0000e-01|  5.0000e-01|   -5.708679|   -5.832493|   -6.442603|   -6.031546|   -6.006086|   -8.623202|    2.042865|
|        9430|  6.7724e+00|  3.7870e-09|  7.6965e-01|  5.0000e-01|  5.0000e-01|  5.0000e-01|   -5.708220|   -5.831906|   -6.442377|   -6.031163|   -6.005606|   -8.622985|    2.042845|
|        9431|  6.7723e+00|  3.7870e-09|  7.6965e-01|  5.0000e-01|  5.0000e-01|  5.0000e-01|   -5.707763|   -5.831324|   -6.442151|   -6.030784|   -6.005129|   -8.622769|    2.042824|
|        9432|  6.7723e+00|  3.7869e-09|  7.6965e-01|  5.0000e-01|  5.0000e-01|  5.0000e-01|   -5.707310|   -5.830745|   -6.441928|   -6.030406|   -6.004654|   -8.622553|    2.042804|
|        9433|  6.7723e+00|  3.7869e-09|  7.6965e-01|  5.0000e-01|  5.0000e-01|  5.0000e-01|   -5.706860|   -5.830169|   -6.441706|   -6.030032|   -6.004182|   -8.622338|    2.042784|
|        9434|  6.7723e+00|  3.7869e-09|  7.6965e-01|  5.0000e-01|  5.0000e-01|  5.0000e-01|   -5.706413|   -5.829598|   -6.441486|   -6.029661|   -6.003713|   -8.622124|    2.042764|
|        9435|  6.7723e+00|  3.7869e-09|  7.6965e-01|  5.0000e-01|  5.0000e-01|  5.0000e-01|   -5.705970|   -5.829030|   -6.441268|   -6.029293|   -6.003246|   -8.621910|    2.042744|
|        9436|  6.7723e+00|  3.7869e-09|  7.6965e-01|  5.0000e-01|  5.0000e-01|  5.0000e-01|   -5.705531|   -5.828467|   -6.441051|   -6.028928|   -6.002782|   -8.621696|    2.042724|
|        9437|  6.7722e+00|  3.7868e-09|  7.6965e-01|  5.0000e-01|  5.0000e-01|  5.0000e-01|   -5.705095|   -5.827906|   -6.440835|   -6.028567|   -6.002321|   -8.621483|    2.042705|
|        9438|  6.7722e+00|  3.7868e-09|  7.6965e-01|  5.0000e-01|  5.0000e-01|  5.0000e-01|   -5.704662|   -5.827350|   -6.440621|   -6.028208|   -6.001863|   -8.621270|    2.042685|
|        9439|  6.7722e+00|  3.7868e-09|  7.6965e-01|  5.0000e-01|  5.0000e-01|  5.0000e-01|   -5.704233|   -5.826798|   -6.440409|   -6.027853|   -6.001408|   -8.621058|    2.042666|
|        9440|  6.7722e+00|  3.7868e-09|  7.6965e-01|  5.0000e-01|  5.0000e-01|  5.0000e-01|   -5.703807|   -5.826249|   -6.440198|   -6.027501|   -6.000955|   -8.620847|    2.042647|
|        9441|  6.7722e+00|  3.7868e-09|  7.6965e-01|  5.0000e-01|  5.0000e-01|  5.0000e-01|   -5.703385|   -5.825704|   -6.439989|   -6.027152|   -6.000506|   -8.620636|    2.042628|
|        9442|  6.7721e+00|  3.7868e-09|  7.6965e-01|  5.0000e-01|  5.0000e-01|  5.0000e-01|   -5.702966|   -5.825163|   -6.439781|   -6.026807|   -6.000059|   -8.620426|    2.042610|
|        9443|  6.7721e+00|  3.7867e-09|  7.6965e-01|  5.0000e-01|  5.0000e-01|  5.0000e-01|   -5.702551|   -5.824625|   -6.439575|   -6.026465|   -5.999616|   -8.620216|    2.042591|
|        9444|  6.7721e+00|  3.7867e-09|  7.6965e-01|  5.0000e-01|  5.0000e-01|  5.0000e-01|   -5.702140|   -5.824092|   -6.439371|   -6.026127|   -5.999175|   -8.620007|    2.042573|
|        9445|  6.7721e+00|  3.7867e-09|  7.6965e-01|  5.0000e-01|  5.0000e-01|  5.0000e-01|   -5.701732|   -5.823562|   -6.439168|   -6.025791|   -5.998738|   -8.619798|    2.042555|
|        9446|  6.7721e+00|  3.7867e-09|  7.6965e-01|  5.0000e-01|  5.0000e-01|  5.0000e-01|   -5.701328|   -5.823036|   -6.438967|   -6.025459|   -5.998303|   -8.619590|    2.042537|
|        9447|  6.7720e+00|  3.7867e-09|  7.6965e-01|  5.0000e-01|  5.0000e-01|  5.0000e-01|   -5.700927|   -5.822514|   -6.438767|   -6.025129|   -5.997870|   -8.619383|    2.042520|
|        9448|  6.7720e+00|  3.7866e-09|  7.6965e-01|  5.0000e-01|  5.0000e-01|  5.0000e-01|   -5.700527|   -5.821993|   -6.438568|   -6.024800|   -5.997438|   -8.619176|    2.042502|
|        9449|  6.7720e+00|  3.7866e-09|  7.6965e-01|  5.0000e-01|  5.0000e-01|  5.0000e-01|   -5.700130|   -5.821475|   -6.438370|   -6.024475|   -5.997008|   -8.618970|    2.042485|
|        9450|  6.7720e+00|  3.7866e-09|  7.6965e-01|  5.0000e-01|  5.0000e-01|  5.0000e-01|   -5.699737|   -5.820961|   -6.438174|   -6.024153|   -5.996582|   -8.618765|    2.042468|
+-----------------------------------------------------------------------+
|        File Writing Summary       |              Filename             |
+-----------------------------------------------------------------------+
|SU2 binary restart                 |restart_flow.dat                   |
|Paraview                           |flow.vtu                           |
|Paraview surface                   |surface_flow.vtu                   |
+-----------------------------------------------------------------------+
+-------------------------------------------------------------------------------------------------------------------------------------------------------------------------------------+
|  Inner_Iter|   Time(sec)|      Min DT|      Max DT|     Min CFL|     Max CFL|     Avg CFL|    rms[Rho]|   rms[RhoU]|   rms[RhoV]|   rms[RhoW]|   rms[RhoE]|     rms[nu]|          CD|
+-------------------------------------------------------------------------------------------------------------------------------------------------------------------------------------+
|        9451|  6.7743e+00|  3.7866e-09|  7.6965e-01|  5.0000e-01|  5.0000e-01|  5.0000e-01|   -5.699348|   -5.820451|   -6.437980|   -6.023834|   -5.996158|   -8.618560|    2.042451|
|        9452|  6.7743e+00|  3.7866e-09|  7.6965e-01|  5.0000e-01|  5.0000e-01|  5.0000e-01|   -5.698962|   -5.819945|   -6.437788|   -6.023518|   -5.995737|   -8.618356|    2.042434|
|        9453|  6.7743e+00|  3.7866e-09|  7.6965e-01|  5.0000e-01|  5.0000e-01|  5.0000e-01|   -5.698580|   -5.819442|   -6.437598|   -6.023205|   -5.995319|   -8.618153|    2.042417|
|        9454|  6.7743e+00|  3.7865e-09|  7.6965e-01|  5.0000e-01|  5.0000e-01|  5.0000e-01|   -5.698201|   -5.818944|   -6.437410|   -6.022895|   -5.994904|   -8.617950|    2.042401|
|        9455|  6.7743e+00|  3.7865e-09|  7.6965e-01|  5.0000e-01|  5.0000e-01|  5.0000e-01|   -5.697827|   -5.818450|   -6.437224|   -6.022589|   -5.994492|   -8.617748|    2.042385|
|        9456|  6.7743e+00|  3.7865e-09|  7.6965e-01|  5.0000e-01|  5.0000e-01|  5.0000e-01|   -5.697456|   -5.817960|   -6.437040|   -6.022287|   -5.994084|   -8.617547|    2.042369|
|        9457|  6.7743e+00|  3.7865e-09|  7.6965e-01|  5.0000e-01|  5.0000e-01|  5.0000e-01|   -5.697088|   -5.817474|   -6.436858|   -6.021987|   -5.993679|   -8.617347|    2.042353|
|        9458|  6.7743e+00|  3.7865e-09|  7.6965e-01|  5.0000e-01|  5.0000e-01|  5.0000e-01|   -5.696725|   -5.816991|   -6.436678|   -6.021691|   -5.993277|   -8.617147|    2.042337|
|        9459|  6.7743e+00|  3.7865e-09|  7.6965e-01|  5.0000e-01|  5.0000e-01|  5.0000e-01|   -5.696365|   -5.816513|   -6.436501|   -6.021399|   -5.992878|   -8.616948|    2.042322|
|        9460|  6.7742e+00|  3.7864e-09|  7.6965e-01|  5.0000e-01|  5.0000e-01|  5.0000e-01|   -5.696009|   -5.816038|   -6.436326|   -6.021110|   -5.992483|   -8.616750|    2.042306|
|        9461|  6.7742e+00|  3.7864e-09|  7.6965e-01|  5.0000e-01|  5.0000e-01|  5.0000e-01|   -5.695656|   -5.815568|   -6.436153|   -6.020824|   -5.992090|   -8.616552|    2.042291|
|        9462|  6.7742e+00|  3.7864e-09|  7.6965e-01|  5.0000e-01|  5.0000e-01|  5.0000e-01|   -5.695307|   -5.815101|   -6.435982|   -6.020541|   -5.991701|   -8.616356|    2.042276|
|        9463|  6.7742e+00|  3.7864e-09|  7.6965e-01|  5.0000e-01|  5.0000e-01|  5.0000e-01|   -5.694962|   -5.814639|   -6.435813|   -6.020262|   -5.991315|   -8.616160|    2.042262|
|        9464|  6.7742e+00|  3.7864e-09|  7.6965e-01|  5.0000e-01|  5.0000e-01|  5.0000e-01|   -5.694621|   -5.814180|   -6.435646|   -6.019985|   -5.990931|   -8.615965|    2.042247|
|        9465|  6.7742e+00|  3.7863e-09|  7.6965e-01|  5.0000e-01|  5.0000e-01|  5.0000e-01|   -5.694283|   -5.813726|   -6.435482|   -6.019713|   -5.990552|   -8.615771|    2.042233|
|        9466|  6.7741e+00|  3.7863e-09|  7.6965e-01|  5.0000e-01|  5.0000e-01|  5.0000e-01|   -5.693950|   -5.813276|   -6.435319|   -6.019444|   -5.990176|   -8.615577|    2.042219|
|        9467|  6.7741e+00|  3.7863e-09|  7.6965e-01|  5.0000e-01|  5.0000e-01|  5.0000e-01|   -5.693620|   -5.812829|   -6.435159|   -6.019178|   -5.989803|   -8.615385|    2.042205|
|        9468|  6.7741e+00|  3.7863e-09|  7.6965e-01|  5.0000e-01|  5.0000e-01|  5.0000e-01|   -5.693294|   -5.812387|   -6.435000|   -6.018916|   -5.989433|   -8.615193|    2.042191|

scontrol show job 1138413
JobId=1138413 JobName=m6_aoa24
   UserId=anthonyy(3152141) GroupId=anthonyy(3152141) MCS_label=N/A
   Priority=693232 Nice=0 Account=rrg-jphickey QOS=normal
   JobState=COMPLETING Reason=TimeLimit Dependency=(null)
   Requeue=0 Restarts=0 BatchFlag=1 Reboot=0 ExitCode=0:15
   RunTime=18:00:16 TimeLimit=18:00:00 TimeMin=N/A
   SubmitTime=2026-03-07T17:47:21 EligibleTime=2026-03-07T17:47:21
   AccrueTime=2026-03-07T17:47:21
   StartTime=2026-03-07T17:47:36 EndTime=2026-03-08T12:47:52 Deadline=N/A
   SuspendTime=None SecsPreSuspend=0 LastSchedEval=2026-03-07T17:47:36 Scheduler=Main
   Partition=compute AllocNode:Sid=tri-login01:136366
   ReqNodeList=(null) ExcNodeList=(null)
   NodeList=tri[0297-0298]
   BatchHost=tri0297
   NumNodes=2 NumCPUs=384 NumTasks=128 CPUs/Task=1 ReqB:S:C:T=0:0:*:*
   ReqTRES=cpu=128,mem=1534000M,node=2,billing=128
   AllocTRES=cpu=384,mem=1534000M,node=2,billing=384
   Socks/Node=* NtasksPerN:B:S:C=64:0:*:* CoreSpec=*
   MinCPUsNode=64 MinMemoryNode=0 MinTmpDiskNode=0
   Features=(null) DelayBoot=00:00:00
   OverSubscribe=NO Contiguous=0 Licenses=(null) Network=(null)
   Command=/scratch/anthonyy/reentry/orion/cases/m6_aoa24/run.sh
   WorkDir=/scratch/anthonyy/reentry/orion/cases/m6_aoa24
   Comment=/opt/slurm/bin/sbatch --export=NONE --get-user-env=L run.sh 
   StdErr=/scratch/anthonyy/reentry/orion/cases/m6_aoa24/orion_1138413.err
   StdIn=/dev/null
   StdOut=/scratch/anthonyy/reentry/orion/cases/m6_aoa24/orion_1138413.out
   TresPerTask=cpu=1
   

sacct -j 1138413
JobID           JobName    Account    Elapsed  MaxVMSize     MaxRSS  SystemCPU    UserCPU ExitCode 
------------ ---------- ---------- ---------- ---------- ---------- ---------- ---------- -------- 
1138413        m6_aoa24 rrg-jphic+   18:00:16                        00:00.139  00:00.584      0:0 
1138413.bat+      batch rrg-jphic+   18:00:17          0      8988K  00:00.139  00:00.584     0:15 
1138413.ext+     extern rrg-jphic+   18:00:16                         00:00:00   00:00:00      0:0 
1138413.0       SU2_CFD rrg-jphic+   18:00:10                         00:00:00   00:00:00      0:0 

