Nodes: tri[0442,0550]
Tasks: 128
NPN:   64

-------------------------------------------------------------------------
|    ___ _   _ ___                                                      |
|   / __| | | |_  )   Release 7.5.1 "Blackbird"                         |
|   \__ \ |_| |/ /                                                      |
|   |___/\___//___|   Suite (Computational Fluid Dynamics Code)         |
|                                                                       |
-------------------------------------------------------------------------
| SU2 Project Website: https://su2code.github.io                        |
|                                                                       |
| The SU2 Project is maintained by the SU2 Foundation                   |
| (http://su2foundation.org)                                            |
-------------------------------------------------------------------------
| Copyright 2012-2023, SU2 Contributors                                 |
|                                                                       |
| SU2 is free software; you can redistribute it and/or                  |
| modify it under the terms of the GNU Lesser General Public            |
| License as published by the Free Software Foundation; either          |
| version 2.1 of the License, or (at your option) any later version.    |
|                                                                       |
| SU2 is distributed in the hope that it will be useful,                |
| but WITHOUT ANY WARRANTY; without even the implied warranty of        |
| MERCHANTABILITY or FITNESS FOR A PARTICULAR PURPOSE. See the GNU      |
| Lesser General Public License for more details.                       |
|                                                                       |
| You should have received a copy of the GNU Lesser General Public      |
| License along with SU2. If not, see <http://www.gnu.org/licenses/>.   |
-------------------------------------------------------------------------

Parsing config file for zone 0

----------------- Physical Case Definition ( Zone 0 ) -------------------
Compressible RANS equations.
Turbulence model: Spalart-Allmaras-noft2
Hybrid RANS/LES: No Hybrid RANS/LES
Mach number: 6.
Angle of attack (AoA): 24 deg, and angle of sideslip (AoS): 0 deg.
Reynolds number: 6.86229e+08. Reference length 5.
No restart solution, use the values at infinity (freestream).
Non-Dimensional simulation (V=1.0, Rho=1.0, T=1.0 at the farfield).
The reference area will be computed using y(2D) or z(3D) projection.
The semi-span will be computed using the max y(3D) value.
The reference length is 0.64607 m.
Reference origin for moment evaluation is (0.25, 0, 0).
Surface(s) where the force coefficients are evaluated: ORION_SURFACE.

Input mesh file name: fine.su2

--------------- Space Numerical Integration ( Zone 0 ) ------------------
Jameson-Schmidt-Turkel scheme (2nd order in space) for the flow inviscid terms.
JST viscous coefficients (2nd & 4th): 0.5, 0.02.
The method includes a grid stretching correction (p = 0.3).
Scalar upwind solver for the turbulence model.
First order integration in space.
Average of gradients with correction (viscous flow terms).
Average of gradients with correction (viscous turbulence terms).
Gradient for upwind reconstruction: Green-Gauss.
Gradient for viscous and source terms: Green-Gauss.

--------------- Time Numerical Integration  ( Zone 0 ) ------------------
Local time stepping (steady state simulation).
Euler implicit method for the flow equations.
FGMRES is used for solving the linear system.
Using a ILU(0) preconditioning.
Convergence criteria of the linear solver: 1e-06.
Max number of linear iterations: 50.
CFL adaptation. Factor down: 0.5, factor up: 1.1,
                lower limit: 0.05, upper limit: 0.5,
                acceptable linear residual: 0.001.
Courant-Friedrichs-Lewy number:     0.05
Euler implicit time integration for the turbulence model.

------------------ Convergence Criteria  ( Zone 0 ) ---------------------
Maximum number of solver subiterations: 999999.
Begin convergence monitoring at iteration 5.
Residual minimum value: 1e-8.
Cauchy series min. value: 1e-10.
Number of Cauchy elements: 100.
Begin windowed time average at iteration 0.

-------------------- Output Information ( Zone 0 ) ----------------------
File writing frequency: 
+------------------------------------+
|                     File| Frequency|
+------------------------------------+
|                  RESTART|       150|
|                 PARAVIEW|       150|
|         SURFACE_PARAVIEW|       150|
+------------------------------------+
Writing the convergence history file every 1 inner iterations.
Writing the screen convergence history every 1 inner iterations.
The tabular file format is CSV (.csv).
Convergence history file name: history.
Forces breakdown file name: forces_breakdown.dat.
Surface file name: surface_flow.
Volume file name: flow.
Restart file name: restart_flow.

------------- Config File Boundary Information ( Zone 0 ) ---------------
+-----------------------------------------------------------------------+
|                        Marker Type|                        Marker Name|
+-----------------------------------------------------------------------+
|                          Far-field|                           FARFIELD|
+-----------------------------------------------------------------------+
|                     Heat flux wall|                      ORION_SURFACE|
+-----------------------------------------------------------------------+

-------------------- Output Preprocessing ( Zone 0 ) --------------------

WARNING: SURFACE_PRESSURE_DROP can only be computed for at least 2 surfaces (outlet, inlet, ...)

Screen output fields: INNER_ITER, WALL_TIME, MIN_DELTA_TIME, MAX_DELTA_TIME, MIN_CFL, MAX_CFL, AVG_CFL, RMS_DENSITY, RMS_MOMENTUM-X, RMS_MOMENTUM-Y, RMS_MOMENTUM-Z, RMS_ENERGY, RMS_NU_TILDE, DRAG
History output group(s): ITER, RMS_RES
Convergence field(s): RMS_DENSITY
Warning: No (valid) fields chosen for time convergence monitoring. Time convergence monitoring inactive.
Volume output fields: MACH, PRESSURE, TEMPERATURE, DENSITY, HEAT_FLUX, Y_PLUS, COORDINATES, SOLUTION

------------------- Geometry Preprocessing ( Zone 0 ) -------------------
Three dimensional problem.
62211324 grid points before partitioning.
190879888 volume elements before partitioning.
2 surface markers.
4104 boundary elements in index 0 (Marker = FARFIELD).
1824836 boundary elements in index 1 (Marker = ORION_SURFACE).
Executing the partitioning functions.
Building the graph adjacency structure.
Calling ParMETIS... graph partitioning complete (4959327 edge cuts).
Distributing ParMETIS coloring.
Rebalancing vertices.
Rebalancing volume element connectivity.
Rebalancing markers and surface elements.
66952290 vertices including ghost points. 
197997438 interior elements including halo cells. 
103171259 tetrahedra.
94500655 prisms.
325524 pyramids.
Establishing MPI communication patterns.
Setting point connectivity.
Renumbering points (Reverse Cuthill McKee Ordering).
Recomputing point connectivity.
Setting element connectivity.
Checking the numerical grid orientation.
All volume elements are correctly orientend.
All surface elements are correctly orientend.
Identifying edges and vertices.
Setting the control volume structure.
Volume of the computational grid: 535693.
Searching for the closest normal neighbors to the surfaces.
Storing a mapping from global to local point index.
Compute the surface curvature.
Max K: 132.896. Mean K: 3.9104. Standard deviation K: 7.49569.
Checking for periodicity.
Computing mesh quality statistics for the dual control volumes.
+--------------------------------------------------------------+
|           Mesh Quality Metric|        Minimum|        Maximum|
+--------------------------------------------------------------+
|    Orthogonality Angle (deg.)|        53.0661|             90|
|     CV Face Area Aspect Ratio|        1.01143|        75298.5|
|           CV Sub-Volume Ratio|        1.00029|        45.0258|
+--------------------------------------------------------------+
Finding max control volume width.
Communicating number of neighbors.
Reference area = 11.531 m^2.
Semi-span length = 2.49999 m.
Wetted area = 57.9072 m^2.
Area projection in the x-plane = 19.6343 m^2, y-plane = 11.531 m^2, z-plane = 11.531 m^2.
Max. coordinate in the x-direction = 2.575 m, y-direction = 2.49999 m, z-direction = 2.49999 m.
Min. coordinate in the x-direction = -0.71 m, y-direction = -2.49999 m, z-direction = -2.5 m.
Computing wall distances.

-------------------- Solver Preprocessing ( Zone 0 ) --------------------
Viscous flow: Computing pressure using the ideal gas law
based on the free-stream temperature and a density computed
from the Reynolds number.
Force coefficients computed using free-stream values.

-- Models:
+------------------------------------------------------------------------------+
|          Viscosity Model|        Conductivity Model|              Fluid Model|
+------------------------------------------------------------------------------+
|               SUTHERLAND|          CONSTANT_PRANDTL|             STANDARD_AIR|
+------------------------------------------------------------------------------+
-- Fluid properties:
+------------------------------------------------------------------------------+
|                  Name|    Dim. value|    Ref. value|      Unit|Non-dim. value|
+------------------------------------------------------------------------------+
|        Ref. Viscosity|     1.716e-05|       2455.73|   N.s/m^2|   6.98773e-09|
|      Sutherland Temp.|        273.15|        288.15|         K|      0.947944|
|     Sutherland Const.|         110.4|        288.15|         K|      0.383134|
+------------------------------------------------------------------------------+
|        Prandtl (Lam.)|             -|             -|         -|          0.72|
|       Prandtl (Turb.)|             -|             -|         -|           0.9|
+------------------------------------------------------------------------------+
|          Gas Constant|       287.058|       14467.7|  N.m/kg.K|     0.0198413|
|      Spec. Heat Ratio|             -|             -|         -|           1.4|
+------------------------------------------------------------------------------+
-- Initial and free-stream conditions:
+------------------------------------------------------------------------------+
|                  Name|    Dim. value|    Ref. value|      Unit|Non-dim. value|
+------------------------------------------------------------------------------+
|       Static Pressure|       99485.6|   5.01407e+06|        Pa|     0.0198413|
|               Density|       1.20274|       1.20274|    kg/m^3|             1|
|           Temperature|        288.15|        288.15|         K|             1|
|          Total Energy|   2.29123e+06|   4.16887e+06|   m^2/s^2|      0.549603|
|            Velocity-X|       1865.26|       2041.78|       m/s|      0.913545|
|            Velocity-Y|             0|       2041.78|       m/s|             0|
|            Velocity-Z|       830.468|       2041.78|       m/s|      0.406737|
|    Velocity Magnitude|       2041.78|       2041.78|       m/s|             1|
+------------------------------------------------------------------------------+
|             Viscosity|    1.7893e-05|       2455.73|   N.s/m^2|    7.2862e-09|
|          Conductivity|             -|   3.55289e+07|   W/m^2.K|             -|
|     Turb. Kin. Energy|       15633.3|   4.16887e+06|   m^2/s^2|       0.00375|
|     Spec. Dissipation|   1.05085e+08|       2041.78|       1/s|       51467.1|
+------------------------------------------------------------------------------+
|           Mach Number|             -|             -|         -|             6|
|       Reynolds Number|             -|             -|         -|   6.86229e+08|
+------------------------------------------------------------------------------+
Initialize Jacobian structure (Navier-Stokes). MG level: 0.
Initialize Jacobian structure (SA model).

------------------- Numerics Preprocessing ( Zone 0 ) -------------------

----------------- Integration Preprocessing ( Zone 0 ) ------------------

------------------- Iteration Preprocessing ( Zone 0 ) ------------------
Euler/Navier-Stokes/RANS fluid iteration.

------------------------------ Begin Solver -----------------------------

Simulation Run using the Single-zone Driver
WARNING: SU2 was not compiled for an AVX-capable architecture. Performance could be better,
         see https://su2code.github.io/docs_v7/Build-SU2-Linux-MacOS/#compiler-optimizations
+-------------------------------------------------------------------------------------------------------------------------------------------------------------------------------------+
|  Inner_Iter|   Time(sec)|      Min DT|      Max DT|     Min CFL|     Max CFL|     Avg CFL|    rms[Rho]|   rms[RhoU]|   rms[RhoV]|   rms[RhoW]|   rms[RhoE]|     rms[nu]|          CD|
+-------------------------------------------------------------------------------------------------------------------------------------------------------------------------------------+
|           0|  5.8417e+00|  1.0713e-08|  7.6951e-02|  5.5000e-02|  5.5000e-02|  5.5000e-02|   -5.269124|  -16.014386|  -17.631550|  -16.362309|   -5.513673|  -13.241969|    0.405122|
|           1|  5.4884e+00|  1.9422e-08|  8.4646e-02|  6.0500e-02|  6.0500e-02|  6.0500e-02|   -5.419609|   -5.495622|   -6.427276|   -5.800201|   -5.655581|  -13.036159|    0.427688|
|           2|  5.4086e+00|  2.0993e-08|  9.3110e-02|  6.6550e-02|  6.6550e-02|  6.6550e-02|   -5.420298|   -5.505351|   -6.435938|   -5.807933|   -5.656528|  -13.064441|    0.452365|
|           3|  5.3969e+00|  2.2567e-08|  1.0242e-01|  7.3205e-02|  7.3205e-02|  7.3205e-02|   -5.420892|   -5.514394|   -6.444699|   -5.814972|   -5.657193|  -13.085641|    0.479313|
|           4|  5.4187e+00|  2.4217e-08|  1.1266e-01|  8.0526e-02|  8.0526e-02|  8.0526e-02|   -5.421394|   -5.523009|   -6.453569|   -5.821542|   -5.657610|  -13.108146|    0.508717|
|           5|  5.3830e+00|  2.5951e-08|  1.2393e-01|  8.8578e-02|  8.8578e-02|  8.8578e-02|   -5.421796|   -5.531375|   -6.462539|   -5.827797|   -5.657794|  -13.127142|    0.540786|
|           6|  5.3698e+00|  2.7772e-08|  1.3632e-01|  9.7436e-02|  9.7436e-02|  9.7436e-02|   -5.422089|   -5.539628|   -6.471581|   -5.833854|   -5.657752|  -13.144267|    0.575751|
|           7|  5.4357e+00|  2.9681e-08|  1.4995e-01|  1.0718e-01|  1.0718e-01|  1.0718e-01|   -5.422257|   -5.547877|   -6.480637|   -5.839801|   -5.657476|  -13.160800|    0.613876|
|           8|  5.4696e+00|  3.1679e-08|  1.6495e-01|  1.1790e-01|  1.1790e-01|  1.1790e-01|   -5.422281|   -5.556210|   -6.489617|   -5.845714|   -5.656956|  -13.177055|    0.655458|
|           9|  5.4966e+00|  3.3761e-08|  1.8145e-01|  1.2969e-01|  1.2969e-01|  1.2969e-01|   -5.422136|   -5.564702|   -6.498394|   -5.851653|   -5.656168|  -13.193164|    0.700831|
|          10|  5.5138e+00|  3.5910e-08|  1.9959e-01|  1.4266e-01|  1.4266e-01|  1.4266e-01|   -5.421792|   -5.573411|   -6.506799|   -5.857668|   -5.655086|  -13.209292|    0.750370|
|          11|  5.5255e+00|  3.8121e-08|  2.1955e-01|  1.5692e-01|  1.5692e-01|  1.5692e-01|   -5.421216|   -5.582365|   -6.514630|   -5.863788|   -5.653674|  -13.225534|    0.804494|
|          12|  5.5423e+00|  4.0398e-08|  2.4150e-01|  1.7261e-01|  1.7261e-01|  1.7261e-01|   -5.420369|   -5.591606|   -6.521669|   -5.870057|   -5.651891|  -13.244512|    0.863683|
|          13|  5.5526e+00|  4.2736e-08|  2.6565e-01|  1.8987e-01|  1.8987e-01|  1.8987e-01|   -5.419209|   -5.601230|   -6.527629|   -5.876565|   -5.649688|  -13.264566|    0.928477|
|          14|  5.5619e+00|  4.5128e-08|  2.9222e-01|  2.0886e-01|  2.0886e-01|  2.0886e-01|   -5.417699|   -5.611321|   -6.532138|   -5.883398|   -5.647022|  -13.282848|    0.999487|
|          15|  5.5708e+00|  4.7566e-08|  3.2144e-01|  2.2975e-01|  2.2975e-01|  2.2975e-01|   -5.415801|   -5.621927|   -6.534837|   -5.890623|   -5.643842|  -13.299913|    1.077402|
|          16|  5.6050e+00|  5.0035e-08|  3.5359e-01|  2.5272e-01|  2.5272e-01|  2.5272e-01|   -5.413471|   -5.633073|   -6.535390|   -5.898316|   -5.640088|  -13.315859|    1.163005|
|          17|  5.6421e+00|  5.2540e-08|  3.8894e-01|  2.7800e-01|  2.7800e-01|  2.7800e-01|   -5.410668|   -5.644760|   -6.533516|   -5.906535|   -5.635695|  -13.331148|    1.257178|
|          18|  5.6725e+00|  5.5078e-08|  4.2784e-01|  3.0580e-01|  3.0580e-01|  3.0580e-01|   -5.407363|   -5.656923|   -6.529066|   -5.915309|   -5.630607|  -13.346534|    1.360917|
|          19|  5.7047e+00|  5.7655e-08|  4.7062e-01|  3.3637e-01|  3.3637e-01|  3.3637e-01|   -5.403558|   -5.669429|   -6.522025|   -5.924660|   -5.624792|  -13.362464|    1.475339|
|          20|  5.7376e+00|  6.0282e-08|  5.1768e-01|  3.7001e-01|  3.7001e-01|  3.7001e-01|   -5.399274|   -5.682027|   -6.512481|   -5.934565|   -5.618240|  -13.376784|    1.601688|
|          21|  5.7684e+00|  6.2993e-08|  5.6945e-01|  4.0701e-01|  4.0701e-01|  4.0701e-01|   -5.394607|   -5.694406|   -6.500596|   -5.945009|   -5.611024|  -13.389812|    1.741370|
|          22|  5.7957e+00|  6.5848e-08|  6.2640e-01|  4.4772e-01|  4.4772e-01|  4.4772e-01|   -5.389733|   -5.706207|   -6.486546|   -5.955951|   -5.603313|  -13.402227|    1.895977|
|          23|  5.8190e+00|  6.8944e-08|  6.8904e-01|  4.9249e-01|  4.9249e-01|  4.9249e-01|   -5.384811|   -5.716427|   -6.470399|   -5.966993|   -5.595295|  -13.414739|    2.067217|
|          24|  5.8553e+00|  7.2406e-08|  7.5794e-01|  5.0000e-01|  5.0000e-01|  5.0000e-01|   -5.380157|   -5.724067|   -6.452060|   -5.977760|   -5.587363|  -13.425769|    2.256878|
|          25|  5.8860e+00|  7.0483e-08|  7.6951e-01|  5.0000e-01|  5.0000e-01|  5.0000e-01|   -5.376253|   -5.728105|   -6.431227|   -5.987681|   -5.580131|  -13.436107|    2.452291|
|          26|  5.9156e+00|  6.8069e-08|  7.6951e-01|  5.0000e-01|  5.0000e-01|  5.0000e-01|   -5.373943|   -5.727513|   -6.409843|   -5.995961|   -5.575072|  -13.445392|    2.650179|
|          27|  5.9467e+00|  6.6261e-08|  7.6951e-01|  5.0000e-01|  5.0000e-01|  5.0000e-01|   -5.373659|   -5.722549|   -6.388275|   -6.001838|   -5.572690|  -13.452667|    2.849489|
|          28|  5.9807e+00|  6.4831e-08|  7.6951e-01|  5.0000e-01|  5.0000e-01|  5.0000e-01|   -5.375736|   -5.714161|   -6.366456|   -6.004738|   -5.573288|  -13.458155|    3.048752|
|          29|  6.0081e+00|  6.3655e-08|  7.6951e-01|  5.0000e-01|  5.0000e-01|  5.0000e-01|   -5.380463|   -5.703562|   -6.344277|   -6.004290|   -5.577148|  -13.462378|    3.246286|
|          30|  6.0337e+00|  6.2653e-08|  7.6951e-01|  5.0000e-01|  5.0000e-01|  5.0000e-01|   -5.388073|   -5.691959|   -6.321581|   -6.000481|   -5.584537|  -13.464869|    3.440237|
|          31|  6.0542e+00|  6.1772e-08|  7.6951e-01|  5.0000e-01|  5.0000e-01|  5.0000e-01|   -5.398722|   -5.680491|   -6.298211|   -5.993628|   -5.595676|  -13.465702|    3.628582|
|          32|  6.0751e+00|  6.0973e-08|  7.6951e-01|  5.0000e-01|  5.0000e-01|  5.0000e-01|   -5.412375|   -5.669964|   -6.274031|   -5.984130|   -5.610627|  -13.465188|    3.809139|
|          33|  6.0931e+00|  6.0228e-08|  7.6951e-01|  5.0000e-01|  5.0000e-01|  5.0000e-01|   -5.428635|   -5.660708|   -6.248957|   -5.972240|   -5.629073|  -13.463219|    3.979555|
|          34|  6.1142e+00|  5.9522e-08|  7.6951e-01|  5.0000e-01|  5.0000e-01|  5.0000e-01|   -5.446457|   -5.652488|   -6.222969|   -5.957895|   -5.649986|  -13.459829|    4.137389|
|          35|  6.1338e+00|  5.8845e-08|  7.6951e-01|  5.0000e-01|  5.0000e-01|  5.0000e-01|   -5.464019|   -5.644932|   -6.196137|   -5.941076|   -5.671393|  -13.455250|    4.280138|
|          36|  6.1506e+00|  5.8189e-08|  7.6951e-01|  5.0000e-01|  5.0000e-01|  5.0000e-01|   -5.478696|   -5.637756|   -6.168649|   -5.922032|   -5.690186|  -13.449516|    4.405272|
|          37|  6.1668e+00|  5.7549e-08|  7.6951e-01|  5.0000e-01|  5.0000e-01|  5.0000e-01|   -5.487378|   -5.630825|   -6.140833|   -5.901316|   -5.702287|  -13.443042|    4.510265|
|          38|  6.1798e+00|  5.6924e-08|  7.6951e-01|  5.0000e-01|  5.0000e-01|  5.0000e-01|   -5.487286|   -5.624068|   -6.113154|   -5.879741|   -5.703605|  -13.436236|    4.592669|
|          39|  6.1952e+00|  5.6312e-08|  7.6951e-01|  5.0000e-01|  5.0000e-01|  5.0000e-01|   -5.477151|   -5.617592|   -6.086198|   -5.858278|   -5.691842|  -13.429338|    4.650210|
|          40|  6.2089e+00|  5.5711e-08|  7.6951e-01|  5.0000e-01|  5.0000e-01|  5.0000e-01|   -5.457819|   -5.611616|   -6.060642|   -5.837902|   -5.667740|  -13.422676|    4.680940|
|          41|  6.2232e+00|  5.5121e-08|  7.6951e-01|  5.0000e-01|  5.0000e-01|  5.0000e-01|   -5.431792|   -5.606464|   -6.037219|   -5.819517|   -5.634600|  -13.416634|    4.683510|
|          42|  6.2384e+00|  5.4543e-08|  7.6951e-01|  5.0000e-01|  5.0000e-01|  5.0000e-01|   -5.402176|   -5.602629|   -6.016632|   -5.803748|   -5.596645|  -13.411472|    4.657568|
|          43|  6.2529e+00|  5.3975e-08|  7.6951e-01|  5.0000e-01|  5.0000e-01|  5.0000e-01|   -5.371807|   -5.600583|   -5.999316|   -5.790882|   -5.557664|  -13.407622|    4.604116|
|          44|  6.2665e+00|  5.3418e-08|  7.6951e-01|  5.0000e-01|  5.0000e-01|  5.0000e-01|   -5.342938|   -5.600556|   -5.985379|   -5.781214|   -5.520603|  -13.403726|    4.525427|
|          45|  6.2781e+00|  5.2873e-08|  7.6951e-01|  5.0000e-01|  5.0000e-01|  5.0000e-01|   -5.317296|   -5.602447|   -5.974727|   -5.775174|   -5.487693|  -13.398877|    4.424446|
|          46|  6.2900e+00|  5.2338e-08|  7.6951e-01|  5.0000e-01|  5.0000e-01|  5.0000e-01|   -5.295608|   -5.605921|   -5.967636|   -5.772701|   -5.459823|  -13.393169|    4.303733|
|          47|  6.2997e+00|  5.1814e-08|  7.6951e-01|  5.0000e-01|  5.0000e-01|  5.0000e-01|   -5.277743|   -5.610974|   -5.965027|   -5.772954|   -5.436759|  -13.386321|    4.165003|
|          48|  6.3108e+00|  5.1301e-08|  7.6951e-01|  5.0000e-01|  5.0000e-01|  5.0000e-01|   -5.263596|   -5.617859|   -5.966756|   -5.773484|   -5.418457|  -13.377806|    4.009294|
|          49|  6.3214e+00|  5.0799e-08|  7.6951e-01|  5.0000e-01|  5.0000e-01|  5.0000e-01|   -5.253452|   -5.625520|   -5.969328|   -5.770524|   -5.405563|  -13.367489|    3.838427|
|          50|  6.3304e+00|  5.0307e-08|  7.6951e-01|  5.0000e-01|  5.0000e-01|  5.0000e-01|   -5.247112|   -5.632147|   -5.969222|   -5.761399|   -5.398055|  -13.355610|    3.655712|
|          51|  6.3399e+00|  4.9827e-08|  7.6951e-01|  5.0000e-01|  5.0000e-01|  5.0000e-01|   -5.243496|   -5.637186|   -5.964360|   -5.745190|   -5.394734|  -13.342616|    3.464673|
|          52|  6.3482e+00|  4.9357e-08|  7.6951e-01|  5.0000e-01|  5.0000e-01|  5.0000e-01|   -5.241276|   -5.640382|   -5.953395|   -5.722801|   -5.393971|  -13.329165|    3.268669|
|          53|  6.3575e+00|  4.8897e-08|  7.6951e-01|  5.0000e-01|  5.0000e-01|  5.0000e-01|   -5.239129|   -5.641334|   -5.935961|   -5.696533|   -5.393933|  -13.316084|    3.070885|
|          54|  6.3649e+00|  4.8448e-08|  7.6951e-01|  5.0000e-01|  5.0000e-01|  5.0000e-01|   -5.235954|   -5.639281|   -5.912847|   -5.669342|   -5.392807|  -13.304086|    2.874401|
|          55|  6.3728e+00|  4.8009e-08|  7.6951e-01|  5.0000e-01|  5.0000e-01|  5.0000e-01|   -5.231076|   -5.633099|   -5.885811|   -5.643995|   -5.389127|  -13.293636|    2.682252|
|          56|  6.3789e+00|  4.7580e-08|  7.6951e-01|  5.0000e-01|  5.0000e-01|  5.0000e-01|   -5.224372|   -5.621616|   -5.857119|   -5.622562|   -5.382137|  -13.285113|    2.497443|
|          57|  6.3972e+00|  4.7161e-08|  7.6951e-01|  5.0000e-01|  5.0000e-01|  5.0000e-01|   -5.216275|   -5.604184|   -5.829061|   -5.606304|   -5.372010|  -13.278886|    2.322927|
|          58|  6.4103e+00|  4.6751e-08|  7.6951e-01|  5.0000e-01|  5.0000e-01|  5.0000e-01|   -5.207626|   -5.581252|   -5.803636|   -5.595681|   -5.359793|  -13.273805|    2.161529|
|          59|  6.4215e+00|  4.6350e-08|  7.6951e-01|  5.0000e-01|  5.0000e-01|  5.0000e-01|   -5.199487|   -5.554641|   -5.782398|   -5.590318|   -5.347133|  -13.265398|    2.015811|
|          60|  6.4268e+00|  4.5959e-08|  7.6951e-01|  5.0000e-01|  5.0000e-01|  5.0000e-01|   -5.192934|   -5.527175|   -5.766257|   -5.588972|   -5.335924|  -13.252733|    1.887890|
|          61|  6.4334e+00|  4.5577e-08|  7.6951e-01|  5.0000e-01|  5.0000e-01|  5.0000e-01|   -5.188557|   -5.501608|   -5.755485|   -5.589673|   -5.327531|  -13.236217|    1.779438|
|          62|  6.4388e+00|  4.5203e-08|  7.6951e-01|  5.0000e-01|  5.0000e-01|  5.0000e-01|   -5.186393|   -5.480254|   -5.749775|   -5.590011|   -5.322587|  -13.217225|    1.691661|
|          63|  6.4433e+00|  4.4838e-08|  7.6951e-01|  5.0000e-01|  5.0000e-01|  5.0000e-01|   -5.185886|   -5.464880|   -5.748212|   -5.587733|   -5.320851|  -13.197435|    1.625326|
|          64|  6.4474e+00|  4.4480e-08|  7.6951e-01|  5.0000e-01|  5.0000e-01|  5.0000e-01|   -5.185867|   -5.456603|   -5.749375|   -5.581603|   -5.321084|  -13.178525|    1.580752|
|          65|  6.4523e+00|  4.4131e-08|  7.6951e-01|  5.0000e-01|  5.0000e-01|  5.0000e-01|   -5.184878|   -5.455763|   -5.751546|   -5.571896|   -5.321432|  -13.162019|    1.557859|
|          66|  6.4570e+00|  4.3790e-08|  7.6951e-01|  5.0000e-01|  5.0000e-01|  5.0000e-01|   -5.181627|   -5.461989|   -5.753027|   -5.560224|   -5.319804|  -13.149162|    1.556208|
|          67|  6.4615e+00|  4.3456e-08|  7.6951e-01|  5.0000e-01|  5.0000e-01|  5.0000e-01|   -5.175440|   -5.474158|   -5.752621|   -5.548808|   -5.314571|  -13.140878|    1.575027|
|          68|  6.4660e+00|  4.3129e-08|  7.6951e-01|  5.0000e-01|  5.0000e-01|  5.0000e-01|   -5.166533|   -5.490313|   -5.750052|   -5.539724|   -5.305289|  -13.137832|    1.613209|
|          69|  6.4698e+00|  4.2809e-08|  7.6951e-01|  5.0000e-01|  5.0000e-01|  5.0000e-01|   -5.155989|   -5.507724|   -5.746050|   -5.534456|   -5.293015|  -13.140249|    1.669277|
|          70|  6.4749e+00|  4.2496e-08|  7.6951e-01|  5.0000e-01|  5.0000e-01|  5.0000e-01|   -5.145562|   -5.523260|   -5.742012|   -5.533701|   -5.280115|  -13.145792|    1.741329|
|          71|  6.4793e+00|  4.2190e-08|  7.6951e-01|  5.0000e-01|  5.0000e-01|  5.0000e-01|   -5.136991|   -5.534359|   -5.739420|   -5.537373|   -5.269239|  -13.152484|    1.827044|
|          72|  6.4820e+00|  4.1890e-08|  7.6951e-01|  5.0000e-01|  5.0000e-01|  5.0000e-01|   -5.131651|   -5.540028|   -5.739435|   -5.544715|   -5.262540|  -13.159171|    1.924286|
|          73|  6.4848e+00|  4.1596e-08|  7.6951e-01|  5.0000e-01|  5.0000e-01|  5.0000e-01|   -5.130528|   -5.541092|   -5.742613|   -5.554414|   -5.261516|  -13.162804|    2.030895|
|          74|  6.4884e+00|  4.1308e-08|  7.6951e-01|  5.0000e-01|  5.0000e-01|  5.0000e-01|   -5.134040|   -5.539482|   -5.748800|   -5.564778|   -5.266707|  -13.161691|    2.144675|
|          75|  6.4920e+00|  4.1026e-08|  7.6951e-01|  5.0000e-01|  5.0000e-01|  5.0000e-01|   -5.141847|   -5.537279|   -5.757211|   -5.574121|   -5.277686|  -13.155920|    2.263161|
|          76|  6.4953e+00|  4.0750e-08|  7.6951e-01|  5.0000e-01|  5.0000e-01|  5.0000e-01|   -5.152971|   -5.535943|   -5.766538|   -5.581232|   -5.293135|  -13.146757|    2.383808|
|          77|  6.4979e+00|  4.0479e-08|  7.6951e-01|  5.0000e-01|  5.0000e-01|  5.0000e-01|   -5.165966|   -5.536090|   -5.775271|   -5.585727|   -5.310923|  -13.136282|    2.504133|
|          78|  6.5012e+00|  4.0213e-08|  7.6951e-01|  5.0000e-01|  5.0000e-01|  5.0000e-01|   -5.179129|   -5.537703|   -5.782150|   -5.588079|   -5.328364|  -13.125838|    2.621778|
|          79|  6.5039e+00|  3.9953e-08|  7.6951e-01|  5.0000e-01|  5.0000e-01|  5.0000e-01|   -5.190905|   -5.540589|   -5.786548|   -5.589325|   -5.342839|  -13.116729|    2.734520|
|          80|  6.5055e+00|  3.9698e-08|  7.6951e-01|  5.0000e-01|  5.0000e-01|  5.0000e-01|   -5.200098|   -5.544439|   -5.788623|   -5.590693|   -5.352300|  -13.109913|    2.840285|
|          81|  6.5074e+00|  3.9447e-08|  7.6951e-01|  5.0000e-01|  5.0000e-01|  5.0000e-01|   -5.206097|   -5.548709|   -5.789324|   -5.593197|   -5.356098|  -13.106119|    2.937177|
|          82|  6.5100e+00|  3.9201e-08|  7.6951e-01|  5.0000e-01|  5.0000e-01|  5.0000e-01|   -5.209190|   -5.553015|   -5.790129|   -5.597418|   -5.355435|  -13.106474|    3.023489|
|          83|  6.5130e+00|  3.8960e-08|  7.6951e-01|  5.0000e-01|  5.0000e-01|  5.0000e-01|   -5.210696|   -5.557349|   -5.792563|   -5.603396|   -5.353164|  -13.111045|    3.097718|
|          84|  6.5137e+00|  3.8723e-08|  7.6951e-01|  5.0000e-01|  5.0000e-01|  5.0000e-01|   -5.212420|   -5.561969|   -5.797664|   -5.610667|   -5.352466|  -13.117874|    3.158596|
|          85|  6.5148e+00|  3.8490e-08|  7.6951e-01|  5.0000e-01|  5.0000e-01|  5.0000e-01|   -5.215805|   -5.567195|   -5.805788|   -5.618450|   -5.355468|  -13.124952|    3.205106|
|          86|  6.5163e+00|  3.8262e-08|  7.6951e-01|  5.0000e-01|  5.0000e-01|  5.0000e-01|   -5.221662|   -5.573266|   -5.816589|   -5.625896|   -5.363088|  -13.131248|    3.236521|
|          87|  6.5181e+00|  3.8038e-08|  7.6951e-01|  5.0000e-01|  5.0000e-01|  5.0000e-01|   -5.230103|   -5.580101|   -5.829127|   -5.632276|   -5.375138|  -13.136527|    3.252443|
|          88|  6.5200e+00|  3.7817e-08|  7.6951e-01|  5.0000e-01|  5.0000e-01|  5.0000e-01|   -5.240325|   -5.587644|   -5.842103|   -5.637161|   -5.390224|  -13.140010|    3.252862|
|          89|  6.5223e+00|  3.7601e-08|  7.6951e-01|  5.0000e-01|  5.0000e-01|  5.0000e-01|   -5.250966|   -5.595929|   -5.854165|   -5.640543|   -5.406175|  -13.141501|    3.238213|
|          90|  6.5247e+00|  3.7388e-08|  7.6951e-01|  5.0000e-01|  5.0000e-01|  5.0000e-01|   -5.260516|   -5.604925|   -5.864190|   -5.642781|   -5.420591|  -13.141376|    3.209473|
|          91|  6.5272e+00|  3.7179e-08|  7.6951e-01|  5.0000e-01|  5.0000e-01|  5.0000e-01|   -5.267717|   -5.614491|   -5.871540|   -5.644477|   -5.431436|  -13.140208|    3.168179|
|          92|  6.5327e+00|  3.6973e-08|  7.6951e-01|  5.0000e-01|  5.0000e-01|  5.0000e-01|   -5.271900|   -5.624370|   -5.876174|   -5.646305|   -5.437598|  -13.138769|    3.116391|
|          93|  6.5377e+00|  3.6771e-08|  7.6951e-01|  5.0000e-01|  5.0000e-01|  5.0000e-01|   -5.273153|   -5.634139|   -5.878590|   -5.648877|   -5.439184|  -13.137826|    3.056440|
|          94|  6.5406e+00|  3.6572e-08|  7.6951e-01|  5.0000e-01|  5.0000e-01|  5.0000e-01|   -5.272213|   -5.643162|   -5.879645|   -5.652628|   -5.437327|  -13.137995|    2.990802|
|          95|  6.5429e+00|  3.6376e-08|  7.6951e-01|  5.0000e-01|  5.0000e-01|  5.0000e-01|   -5.270190|   -5.650604|   -5.880331|   -5.657744|   -5.433715|  -13.139710|    2.922028|
|          96|  6.5463e+00|  3.6184e-08|  7.6951e-01|  5.0000e-01|  5.0000e-01|  5.0000e-01|   -5.268355|   -5.655635|   -5.881591|   -5.664182|   -5.430222|  -13.143237|    2.852662|
|          97|  6.5484e+00|  3.5994e-08|  7.6951e-01|  5.0000e-01|  5.0000e-01|  5.0000e-01|   -5.267924|   -5.657651|   -5.884164|   -5.671670|   -5.428531|  -13.148838|    2.785156|
|          98|  6.5503e+00|  3.5808e-08|  7.6951e-01|  5.0000e-01|  5.0000e-01|  5.0000e-01|   -5.269909|   -5.656488|   -5.888491|   -5.679752|   -5.429994|  -13.156276|    2.721766|
|          99|  6.5515e+00|  3.5624e-08|  7.6951e-01|  5.0000e-01|  5.0000e-01|  5.0000e-01|   -5.274959|   -5.652611|   -5.894661|   -5.687823|   -5.435448|  -13.164743|    2.664489|
|         100|  6.5532e+00|  3.5444e-08|  7.6951e-01|  5.0000e-01|  5.0000e-01|  5.0000e-01|   -5.283270|   -5.647001|   -5.902404|   -5.695227|   -5.445155|  -13.172799|    2.615026|
|         101|  6.5545e+00|  3.5266e-08|  7.6951e-01|  5.0000e-01|  5.0000e-01|  5.0000e-01|   -5.294390|   -5.640929|   -5.911142|   -5.701370|   -5.458577|  -13.179072|    2.574758|
|         102|  6.5552e+00|  3.5091e-08|  7.6951e-01|  5.0000e-01|  5.0000e-01|  5.0000e-01|   -5.307342|   -5.635642|   -5.920119|   -5.705859|   -5.474571|  -13.182681|    2.544729|
|         103|  6.5566e+00|  3.4918e-08|  7.6951e-01|  5.0000e-01|  5.0000e-01|  5.0000e-01|   -5.320725|   -5.632105|   -5.928503|   -5.708562|   -5.491448|  -13.183299|    2.525644|
|         104|  6.5571e+00|  3.4748e-08|  7.6951e-01|  5.0000e-01|  5.0000e-01|  5.0000e-01|   -5.332861|   -5.630954|   -5.935526|   -5.709626|   -5.507076|  -13.181192|    2.517863|
|         105|  6.5585e+00|  3.4581e-08|  7.6951e-01|  5.0000e-01|  5.0000e-01|  5.0000e-01|   -5.342058|   -5.632499|   -5.940619|   -5.709422|   -5.519168|  -13.176974|    2.521406|
|         106|  6.5591e+00|  3.4416e-08|  7.6951e-01|  5.0000e-01|  5.0000e-01|  5.0000e-01|   -5.347017|   -5.636770|   -5.943554|   -5.708462|   -5.525873|  -13.171464|    2.535955|
|         107|  6.5599e+00|  3.4253e-08|  7.6951e-01|  5.0000e-01|  5.0000e-01|  5.0000e-01|   -5.347212|   -5.643548|   -5.944464|   -5.707268|   -5.526392|  -13.165445|    2.560855|
|         108|  6.5600e+00|  3.4093e-08|  7.6951e-01|  5.0000e-01|  5.0000e-01|  5.0000e-01|   -5.343064|   -5.652391|   -5.943811|   -5.706293|   -5.521305|  -13.159490|    2.595115|
|         109|  6.5610e+00|  3.3935e-08|  7.6951e-01|  5.0000e-01|  5.0000e-01|  5.0000e-01|   -5.335762|   -5.662626|   -5.942211|   -5.705819|   -5.512283|  -13.154055|    2.637357|
|         110|  6.5663e+00|  3.3780e-08|  7.6951e-01|  5.0000e-01|  5.0000e-01|  5.0000e-01|   -5.326857|   -5.673311|   -5.940295|   -5.705956|   -5.501457|  -13.149485|    2.685970|
|         111|  6.5716e+00|  3.3626e-08|  7.6951e-01|  5.0000e-01|  5.0000e-01|  5.0000e-01|   -5.317823|   -5.683351|   -5.938566|   -5.706660|   -5.490753|  -13.146020|    2.739271|
|         112|  6.5749e+00|  3.3475e-08|  7.6951e-01|  5.0000e-01|  5.0000e-01|  5.0000e-01|   -5.309845|   -5.691611|   -5.937355|   -5.707794|   -5.481616|  -13.143780|    2.795542|
|         113|  6.5766e+00|  3.3325e-08|  7.6951e-01|  5.0000e-01|  5.0000e-01|  5.0000e-01|   -5.303736|   -5.697063|   -5.936796|   -5.709175|   -5.474945|  -13.142809|    2.853063|
|         114|  6.5785e+00|  3.3178e-08|  7.6951e-01|  5.0000e-01|  5.0000e-01|  5.0000e-01|   -5.299998|   -5.699003|   -5.936865|   -5.710584|   -5.471235|  -13.143085|    2.910157|
|         115|  6.5807e+00|  3.3033e-08|  7.6951e-01|  5.0000e-01|  5.0000e-01|  5.0000e-01|   -5.298921|   -5.697250|   -5.937407|   -5.711800|   -5.470735|  -13.144859|    2.965243|
|         116|  6.5818e+00|  3.2890e-08|  7.6951e-01|  5.0000e-01|  5.0000e-01|  5.0000e-01|   -5.300562|   -5.692236|   -5.938162|   -5.712602|   -5.473436|  -13.147691|    3.016870|
|         117|  6.5818e+00|  3.2748e-08|  7.6951e-01|  5.0000e-01|  5.0000e-01|  5.0000e-01|   -5.304709|   -5.684892|   -5.938803|   -5.712786|   -5.479035|  -13.150416|    3.063733|
|         118|  6.5825e+00|  3.2609e-08|  7.6951e-01|  5.0000e-01|  5.0000e-01|  5.0000e-01|   -5.310749|   -5.676395|   -5.939011|   -5.712184|   -5.486726|  -13.151855|    3.104701|
|         119|  6.5842e+00|  3.2471e-08|  7.6951e-01|  5.0000e-01|  5.0000e-01|  5.0000e-01|   -5.317769|   -5.668002|   -5.938534|   -5.710637|   -5.495444|  -13.151085|    3.138832|
|         120|  6.5853e+00|  3.2335e-08|  7.6951e-01|  5.0000e-01|  5.0000e-01|  5.0000e-01|   -5.324675|   -5.660722|   -5.937180|   -5.708061|   -5.503959|  -13.147589|    3.165396|
|         121|  6.5863e+00|  3.2201e-08|  7.6951e-01|  5.0000e-01|  5.0000e-01|  5.0000e-01|   -5.330264|   -5.655260|   -5.934806|   -5.704442|   -5.510895|  -13.141247|    3.183890|
|         122|  6.5866e+00|  3.2069e-08|  7.6951e-01|  5.0000e-01|  5.0000e-01|  5.0000e-01|   -5.333397|   -5.652083|   -5.931357|   -5.699890|   -5.514921|  -13.132348|    3.194052|
|         123|  6.5869e+00|  3.1938e-08|  7.6951e-01|  5.0000e-01|  5.0000e-01|  5.0000e-01|   -5.333222|   -5.651459|   -5.926863|   -5.694640|   -5.515000|  -13.121403|    3.195860|
|         124|  6.5870e+00|  3.1809e-08|  7.6951e-01|  5.0000e-01|  5.0000e-01|  5.0000e-01|   -5.329388|   -5.653465|   -5.921460|   -5.689028|   -5.510655|  -13.109256|    3.189539|
|         125|  6.5875e+00|  3.1681e-08|  7.6951e-01|  5.0000e-01|  5.0000e-01|  5.0000e-01|   -5.322168|   -5.657946|   -5.915405|   -5.683484|   -5.502151|  -13.096850|    3.175548|
|         126|  6.5887e+00|  3.1555e-08|  7.6951e-01|  5.0000e-01|  5.0000e-01|  5.0000e-01|   -5.312396|   -5.664459|   -5.909058|   -5.678451|   -5.490436|  -13.085088|    3.154573|
|         127|  6.5892e+00|  3.1431e-08|  7.6951e-01|  5.0000e-01|  5.0000e-01|  5.0000e-01|   -5.301266|   -5.672220|   -5.902862|   -5.674332|   -5.476918|  -13.074734|    3.127508|
|         128|  6.5900e+00|  3.1308e-08|  7.6951e-01|  5.0000e-01|  5.0000e-01|  5.0000e-01|   -5.290054|   -5.680105|   -5.897290|   -5.671424|   -5.463135|  -13.066373|    3.095420|
|         129|  6.5918e+00|  3.1187e-08|  7.6951e-01|  5.0000e-01|  5.0000e-01|  5.0000e-01|   -5.279942|   -5.686818|   -5.892791|   -5.669872|   -5.450556|  -13.060614|    3.059476|
|         130|  6.5936e+00|  3.1067e-08|  7.6951e-01|  5.0000e-01|  5.0000e-01|  5.0000e-01|   -5.271917|   -5.691146|   -5.889727|   -5.669668|   -5.440440|  -13.059637|    3.020904|
|         131|  6.5948e+00|  3.0948e-08|  7.6951e-01|  5.0000e-01|  5.0000e-01|  5.0000e-01|   -5.266846|   -5.692332|   -5.888301|   -5.670629|   -5.433950|  -13.063353|    2.980960|
|         132|  6.5966e+00|  3.0831e-08|  7.6951e-01|  5.0000e-01|  5.0000e-01|  5.0000e-01|   -5.265180|   -5.690330|   -5.888464|   -5.672437|   -5.431743|  -13.070264|    2.940883|
|         133|  6.5989e+00|  3.0715e-08|  7.6951e-01|  5.0000e-01|  5.0000e-01|  5.0000e-01|   -5.266967|   -5.685773|   -5.889958|   -5.674703|   -5.433964|  -13.078634|    2.901867|
|         134|  6.6003e+00|  3.0601e-08|  7.6951e-01|  5.0000e-01|  5.0000e-01|  5.0000e-01|   -5.271926|   -5.679621|   -5.892335|   -5.676962|   -5.440260|  -13.086656|    2.865021|
|         135|  6.6015e+00|  3.0488e-08|  7.6951e-01|  5.0000e-01|  5.0000e-01|  5.0000e-01|   -5.279286|   -5.673182|   -5.895054|   -5.678780|   -5.449705|  -13.092618|    2.831342|
|         136|  6.6022e+00|  3.0376e-08|  7.6951e-01|  5.0000e-01|  5.0000e-01|  5.0000e-01|   -5.287904|   -5.667628|   -5.897529|   -5.679807|   -5.460935|  -13.095470|    2.801691|
|         137|  6.6029e+00|  3.0266e-08|  7.6951e-01|  5.0000e-01|  5.0000e-01|  5.0000e-01|   -5.296411|   -5.663740|   -5.899242|   -5.679848|   -5.472210|  -13.094782|    2.776779|
|         138|  6.6031e+00|  3.0156e-08|  7.6951e-01|  5.0000e-01|  5.0000e-01|  5.0000e-01|   -5.303382|   -5.661940|   -5.899825|   -5.678888|   -5.481603|  -13.090692|    2.757154|
|         139|  6.6043e+00|  3.0048e-08|  7.6951e-01|  5.0000e-01|  5.0000e-01|  5.0000e-01|   -5.307611|   -5.662341|   -5.899139|   -5.677121|   -5.487384|  -13.083959|    2.743199|
|         140|  6.6050e+00|  2.9942e-08|  7.6951e-01|  5.0000e-01|  5.0000e-01|  5.0000e-01|   -5.308419|   -5.664802|   -5.897305|   -5.674920|   -5.488495|  -13.075627|    2.735131|
|         141|  6.6057e+00|  2.9836e-08|  7.6951e-01|  5.0000e-01|  5.0000e-01|  5.0000e-01|   -5.305829|   -5.668946|   -5.894669|   -5.672749|   -5.484854|  -13.066906|    2.732999|
|         142|  6.6075e+00|  2.9732e-08|  7.6951e-01|  5.0000e-01|  5.0000e-01|  5.0000e-01|   -5.300538|   -5.674132|   -5.891754|   -5.671087|   -5.477396|  -13.058787|    2.736695|
|         143|  6.6084e+00|  2.9628e-08|  7.6951e-01|  5.0000e-01|  5.0000e-01|  5.0000e-01|   -5.293705|   -5.679550|   -5.889154|   -5.670305|   -5.467774|  -13.052168|    2.745956|
|         144|  6.6087e+00|  2.9526e-08|  7.6951e-01|  5.0000e-01|  5.0000e-01|  5.0000e-01|   -5.286696|   -5.684376|   -5.887438|   -5.670617|   -5.457911|  -13.047659|    2.760381|
|         145|  6.6093e+00|  2.9425e-08|  7.6951e-01|  5.0000e-01|  5.0000e-01|  5.0000e-01|   -5.280775|   -5.687900|   -5.887041|   -5.672051|   -5.449533|  -13.046506|    2.779440|
|         146|  6.6103e+00|  2.9325e-08|  7.6951e-01|  5.0000e-01|  5.0000e-01|  5.0000e-01|   -5.276999|   -5.689704|   -5.888187|   -5.674432|   -5.444052|  -13.050000|    2.802492|
|         147|  6.6110e+00|  2.9226e-08|  7.6951e-01|  5.0000e-01|  5.0000e-01|  5.0000e-01|   -5.276124|   -5.689785|   -5.890803|   -5.677425|   -5.442484|  -13.056923|    2.828801|
|         148|  6.6115e+00|  2.9128e-08|  7.6951e-01|  5.0000e-01|  5.0000e-01|  5.0000e-01|   -5.278299|   -5.688442|   -5.894535|   -5.680598|   -5.445017|  -13.065765|    2.857566|
|         149|  6.6115e+00|  2.9031e-08|  7.6951e-01|  5.0000e-01|  5.0000e-01|  5.0000e-01|   -5.283229|   -5.686153|   -5.898822|   -5.683470|   -5.451239|  -13.074952|    2.887956|
|         150|  6.6110e+00|  2.8936e-08|  7.6951e-01|  5.0000e-01|  5.0000e-01|  5.0000e-01|   -5.290116|   -5.683644|   -5.903021|   -5.685610|   -5.460126|  -13.082722|    2.919142|
+-----------------------------------------------------------------------+
|        File Writing Summary       |              Filename             |
+-----------------------------------------------------------------------+
|SU2 binary restart                 |restart_flow.dat                   |
|Paraview                           |flow.vtu                           |
|Paraview surface                   |surface_flow.vtu                   |
+-----------------------------------------------------------------------+
+-------------------------------------------------------------------------------------------------------------------------------------------------------------------------------------+
|  Inner_Iter|   Time(sec)|      Min DT|      Max DT|     Min CFL|     Max CFL|     Avg CFL|    rms[Rho]|   rms[RhoU]|   rms[RhoV]|   rms[RhoW]|   rms[RhoE]|     rms[nu]|          CD|
+-------------------------------------------------------------------------------------------------------------------------------------------------------------------------------------+
|         151|  6.7556e+00|  2.8841e-08|  7.6951e-01|  5.0000e-01|  5.0000e-01|  5.0000e-01|   -5.297815|   -5.681659|   -5.906498|   -5.686698|   -5.470269|  -13.087746|    2.950306|
|         152|  6.7588e+00|  2.8747e-08|  7.6951e-01|  5.0000e-01|  5.0000e-01|  5.0000e-01|   -5.305041|   -5.680711|   -5.908749|   -5.686588|   -5.480018|  -13.089289|    2.980659|
|         153|  6.7617e+00|  2.8654e-08|  7.6951e-01|  5.0000e-01|  5.0000e-01|  5.0000e-01|   -5.310547|   -5.681074|   -5.909465|   -5.685334|   -5.487697|  -13.087308|    3.009457|
|         154|  6.7630e+00|  2.8562e-08|  7.6951e-01|  5.0000e-01|  5.0000e-01|  5.0000e-01|   -5.313373|   -5.682786|   -5.908597|   -5.683196|   -5.491933|  -13.082388|    3.036016|
|         155|  6.7653e+00|  2.8471e-08|  7.6951e-01|  5.0000e-01|  5.0000e-01|  5.0000e-01|   -5.313074|   -5.685671|   -5.906358|   -5.680584|   -5.492013|  -13.075439|    3.059736|
|         156|  6.7672e+00|  2.8381e-08|  7.6951e-01|  5.0000e-01|  5.0000e-01|  5.0000e-01|   -5.309830|   -5.689365|   -5.903159|   -5.677968|   -5.488068|  -13.067559|    3.080112|
|         157|  6.7677e+00|  2.8292e-08|  7.6951e-01|  5.0000e-01|  5.0000e-01|  5.0000e-01|   -5.304354|   -5.693279|   -5.899542|   -5.675795|   -5.480984|  -13.059703|    3.096743|
|         158|  6.7685e+00|  2.8203e-08|  7.6951e-01|  5.0000e-01|  5.0000e-01|  5.0000e-01|   -5.297680|   -5.696687|   -5.896075|   -5.674386|   -5.472148|  -13.052681|    3.109340|
|         159|  6.7692e+00|  2.8116e-08|  7.6951e-01|  5.0000e-01|  5.0000e-01|  5.0000e-01|   -5.290960|   -5.698900|   -5.893271|   -5.673909|   -5.463116|  -13.047040|    3.117724|
|         160|  6.7701e+00|  2.8029e-08|  7.6951e-01|  5.0000e-01|  5.0000e-01|  5.0000e-01|   -5.285231|   -5.699390|   -5.891505|   -5.674359|   -5.455274|  -13.043236|    3.121833|
|         161|  6.7706e+00|  2.7943e-08|  7.6951e-01|  5.0000e-01|  5.0000e-01|  5.0000e-01|   -5.281303|   -5.697934|   -5.890969|   -5.675555|   -5.449700|  -13.043138|    3.121715|
|         162|  6.7700e+00|  2.7858e-08|  7.6951e-01|  5.0000e-01|  5.0000e-01|  5.0000e-01|   -5.279841|   -5.694726|   -5.891627|   -5.677171|   -5.447316|  -13.046624|    3.117521|
|         163|  6.7701e+00|  2.7774e-08|  7.6951e-01|  5.0000e-01|  5.0000e-01|  5.0000e-01|   -5.281010|   -5.690251|   -5.893180|   -5.678796|   -5.448382|  -13.052417|    3.109502|
|         164|  6.7698e+00|  2.7691e-08|  7.6951e-01|  5.0000e-01|  5.0000e-01|  5.0000e-01|   -5.284536|   -5.685160|   -5.895160|   -5.679986|   -5.452587|  -13.059070|    3.097995|
|         165|  6.7697e+00|  2.7609e-08|  7.6951e-01|  5.0000e-01|  5.0000e-01|  5.0000e-01|   -5.289715|   -5.680199|   -5.897029|   -5.680348|   -5.459041|  -13.064931|    3.083409|
|         166|  6.7695e+00|  2.7527e-08|  7.6951e-01|  5.0000e-01|  5.0000e-01|  5.0000e-01|   -5.295500|   -5.676141|   -5.898260|   -5.679594|   -5.466486|  -13.068656|    3.066218|
|         167|  6.7690e+00|  2.7446e-08|  7.6951e-01|  5.0000e-01|  5.0000e-01|  5.0000e-01|   -5.300707|   -5.673531|   -5.898433|   -5.677616|   -5.473463|  -13.069396|    3.046940|
|         168|  6.7689e+00|  2.7366e-08|  7.6951e-01|  5.0000e-01|  5.0000e-01|  5.0000e-01|   -5.304193|   -5.672664|   -5.897282|   -5.674519|   -5.478493|  -13.066883|    3.026121|
|         169|  6.7688e+00|  2.7286e-08|  7.6951e-01|  5.0000e-01|  5.0000e-01|  5.0000e-01|   -5.305078|   -5.673601|   -5.894752|   -5.670605|   -5.480349|  -13.061402|    3.004315|
|         170|  6.7683e+00|  2.7207e-08|  7.6951e-01|  5.0000e-01|  5.0000e-01|  5.0000e-01|   -5.302959|   -5.676186|   -5.891004|   -5.666329|   -5.478384|  -13.053604|    2.982068|
|         171|  6.7678e+00|  2.7129e-08|  7.6951e-01|  5.0000e-01|  5.0000e-01|  5.0000e-01|   -5.298003|   -5.680054|   -5.886384|   -5.662204|   -5.472686|  -13.044371|    2.959907|
|         172|  6.7674e+00|  2.7052e-08|  7.6951e-01|  5.0000e-01|  5.0000e-01|  5.0000e-01|   -5.290906|   -5.684610|   -5.881361|   -5.658708|   -5.464041|  -13.034558|    2.938338|
|         173|  6.7669e+00|  2.6975e-08|  7.6951e-01|  5.0000e-01|  5.0000e-01|  5.0000e-01|   -5.282654|   -5.688994|   -5.876453|   -5.656209|   -5.453651|  -13.024993|    2.917830|
|         174|  6.7664e+00|  2.6899e-08|  7.6951e-01|  5.0000e-01|  5.0000e-01|  5.0000e-01|   -5.274344|   -5.692251|   -5.872171|   -5.654913|   -5.442922|  -13.016301|    2.898812|
|         175|  6.7665e+00|  2.6824e-08|  7.6951e-01|  5.0000e-01|  5.0000e-01|  5.0000e-01|   -5.267014|   -5.693536|   -5.868945|   -5.654842|   -5.433209|  -13.009312|    2.881661|
|         176|  6.7662e+00|  2.6750e-08|  7.6951e-01|  5.0000e-01|  5.0000e-01|  5.0000e-01|   -5.261530|   -5.692348|   -5.867069|   -5.655827|   -5.425671|  -13.006683|    2.866701|
|         177|  6.7665e+00|  2.6676e-08|  7.6951e-01|  5.0000e-01|  5.0000e-01|  5.0000e-01|   -5.258642|   -5.688737|   -5.866638|   -5.657535|   -5.421365|  -13.008525|    2.854195|
|         178|  6.7666e+00|  2.6602e-08|  7.6951e-01|  5.0000e-01|  5.0000e-01|  5.0000e-01|   -5.258661|   -5.683246|   -5.867484|   -5.659510|   -5.420793|  -13.013816|    2.844341|
|         179|  6.7666e+00|  2.6530e-08|  7.6951e-01|  5.0000e-01|  5.0000e-01|  5.0000e-01|   -5.261466|   -5.676722|   -5.869236|   -5.661252|   -5.423900|  -13.021125|    2.837278|
|         180|  6.7661e+00|  2.6458e-08|  7.6951e-01|  5.0000e-01|  5.0000e-01|  5.0000e-01|   -5.266554|   -5.670101|   -5.871386|   -5.662275|   -5.430094|  -13.028684|    2.833080|
|         181|  6.7667e+00|  2.6387e-08|  7.6951e-01|  5.0000e-01|  5.0000e-01|  5.0000e-01|   -5.272974|   -5.664380|   -5.873360|   -5.662203|   -5.438243|  -13.034883|    2.831755|
|         182|  6.7671e+00|  2.6316e-08|  7.6951e-01|  5.0000e-01|  5.0000e-01|  5.0000e-01|   -5.279516|   -5.660331|   -5.874626|   -5.660878|   -5.446878|  -13.038431|    2.833256|
|         183|  6.7673e+00|  2.6246e-08|  7.6951e-01|  5.0000e-01|  5.0000e-01|  5.0000e-01|   -5.284887|   -5.658381|   -5.874768|   -5.658387|   -5.454322|  -13.038650|    2.837472|
|         184|  6.7679e+00|  2.6176e-08|  7.6951e-01|  5.0000e-01|  5.0000e-01|  5.0000e-01|   -5.287946|   -5.658636|   -5.873580|   -5.655054|   -5.458974|  -13.035534|    2.844242|
|         185|  6.7675e+00|  2.6107e-08|  7.6951e-01|  5.0000e-01|  5.0000e-01|  5.0000e-01|   -5.287970|   -5.660928|   -5.871102|   -5.651373|   -5.459704|  -13.029517|    2.853351|
|         186|  6.7675e+00|  2.6039e-08|  7.6951e-01|  5.0000e-01|  5.0000e-01|  5.0000e-01|   -5.284855|   -5.664845|   -5.867624|   -5.647901|   -5.456190|  -13.021421|    2.864540|
|         187|  6.7675e+00|  2.5971e-08|  7.6951e-01|  5.0000e-01|  5.0000e-01|  5.0000e-01|   -5.279137|   -5.669734|   -5.863619|   -5.645157|   -5.448985|  -13.012222|    2.877510|
|         188|  6.7677e+00|  2.5904e-08|  7.6951e-01|  5.0000e-01|  5.0000e-01|  5.0000e-01|   -5.271784|   -5.674667|   -5.859663|   -5.643529|   -5.439318|  -13.002938|    2.891927|
|         189|  6.7680e+00|  2.5837e-08|  7.6951e-01|  5.0000e-01|  5.0000e-01|  5.0000e-01|   -5.264013|   -5.678659|   -5.856353|   -5.643224|   -5.428839|  -12.994400|    2.907435|
|         190|  6.7680e+00|  2.5771e-08|  7.6951e-01|  5.0000e-01|  5.0000e-01|  5.0000e-01|   -5.257043|   -5.680881|   -5.854201|   -5.644236|   -5.419221|  -12.988095|    2.923664|
|         191|  6.7680e+00|  2.5705e-08|  7.6951e-01|  5.0000e-01|  5.0000e-01|  5.0000e-01|   -5.251949|   -5.680883|   -5.853549|   -5.646354|   -5.411943|  -12.986611|    2.940242|
|         192|  6.7680e+00|  2.5640e-08|  7.6951e-01|  5.0000e-01|  5.0000e-01|  5.0000e-01|   -5.249589|   -5.678743|   -5.854484|   -5.649182|   -5.408223|  -12.989719|    2.956796|
|         193|  6.7680e+00|  2.5576e-08|  7.6951e-01|  5.0000e-01|  5.0000e-01|  5.0000e-01|   -5.250303|   -5.674965|   -5.856800|   -5.652200|   -5.408591|  -12.996383|    2.972960|
|         194|  6.7681e+00|  2.5512e-08|  7.6951e-01|  5.0000e-01|  5.0000e-01|  5.0000e-01|   -5.253979|   -5.670272|   -5.860058|   -5.654851|   -5.412967|  -13.005033|    2.988385|
|         195|  6.7690e+00|  2.5448e-08|  7.6951e-01|  5.0000e-01|  5.0000e-01|  5.0000e-01|   -5.260030|   -5.665473|   -5.863659|   -5.656614|   -5.420636|  -13.013953|    3.002745|
|         196|  6.7693e+00|  2.5385e-08|  7.6951e-01|  5.0000e-01|  5.0000e-01|  5.0000e-01|   -5.267417|   -5.661413|   -5.866959|   -5.657143|   -5.430330|  -13.021671|    3.015745|
|         197|  6.7692e+00|  2.5323e-08|  7.6951e-01|  5.0000e-01|  5.0000e-01|  5.0000e-01|   -5.274859|   -5.658727|   -5.869382|   -5.656343|   -5.440442|  -13.026851|    3.027128|
|         198|  6.7694e+00|  2.5261e-08|  7.6951e-01|  5.0000e-01|  5.0000e-01|  5.0000e-01|   -5.281031|   -5.657766|   -5.870513|   -5.654377|   -5.449195|  -13.028751|    3.036679|
|         199|  6.7696e+00|  2.5199e-08|  7.6951e-01|  5.0000e-01|  5.0000e-01|  5.0000e-01|   -5.284809|   -5.658598|   -5.870183|   -5.651637|   -5.454962|  -13.027222|    3.044228|
|         200|  6.7695e+00|  2.5138e-08|  7.6951e-01|  5.0000e-01|  5.0000e-01|  5.0000e-01|   -5.285523|   -5.661047|   -5.868493|   -5.648639|   -5.456654|  -13.022697|    3.049655|
|         201|  6.7692e+00|  2.5078e-08|  7.6951e-01|  5.0000e-01|  5.0000e-01|  5.0000e-01|   -5.283134|   -5.664733|   -5.865793|   -5.645927|   -5.454035|  -13.016006|    3.052888|
|         202|  6.7698e+00|  2.5018e-08|  7.6951e-01|  5.0000e-01|  5.0000e-01|  5.0000e-01|   -5.278203|   -5.669043|   -5.862593|   -5.643971|   -5.447724|  -13.008160|    3.053909|
|         203|  6.7700e+00|  2.4958e-08|  7.6951e-01|  5.0000e-01|  5.0000e-01|  5.0000e-01|   -5.271716|   -5.673153|   -5.859489|   -5.643088|   -5.439044|  -13.000198|    3.052746|
|         204|  6.7697e+00|  2.4899e-08|  7.6951e-01|  5.0000e-01|  5.0000e-01|  5.0000e-01|   -5.264896|   -5.676256|   -5.857055|   -5.643400|   -5.429692|  -12.992949|    3.049479|
|         205|  6.7692e+00|  2.4840e-08|  7.6951e-01|  5.0000e-01|  5.0000e-01|  5.0000e-01|   -5.258933|   -5.677724|   -5.855739|   -5.644825|   -5.421320|  -12.987730|    3.044231|
|         206|  6.7687e+00|  2.4782e-08|  7.6951e-01|  5.0000e-01|  5.0000e-01|  5.0000e-01|   -5.254826|   -5.677264|   -5.855799|   -5.647086|   -5.415306|  -12.986782|    3.037172|
|         207|  6.7683e+00|  2.4724e-08|  7.6951e-01|  5.0000e-01|  5.0000e-01|  5.0000e-01|   -5.253341|   -5.675044|   -5.857226|   -5.649744|   -5.412736|  -12.989877|    3.028505|
|         208|  6.7683e+00|  2.4667e-08|  7.6951e-01|  5.0000e-01|  5.0000e-01|  5.0000e-01|   -5.254702|   -5.671512|   -5.859737|   -5.652278|   -5.413967|  -12.995979|    3.018472|
|         209|  6.7684e+00|  2.4610e-08|  7.6951e-01|  5.0000e-01|  5.0000e-01|  5.0000e-01|   -5.258665|   -5.667283|   -5.862853|   -5.654168|   -5.418738|  -13.003690|    3.007337|
|         210|  6.7689e+00|  2.4553e-08|  7.6951e-01|  5.0000e-01|  5.0000e-01|  5.0000e-01|   -5.264531|   -5.663066|   -5.865987|   -5.654997|   -5.426192|  -13.011603|    2.995385|
|         211|  6.7685e+00|  2.4497e-08|  7.6951e-01|  5.0000e-01|  5.0000e-01|  5.0000e-01|   -5.271236|   -5.659572|   -5.868566|   -5.654560|   -5.435025|  -13.018229|    2.982911|
|         212|  6.7685e+00|  2.4442e-08|  7.6951e-01|  5.0000e-01|  5.0000e-01|  5.0000e-01|   -5.277567|   -5.657330|   -5.870122|   -5.652897|   -5.443703|  -13.022422|    2.970212|
|         213|  6.7686e+00|  2.4386e-08|  7.6951e-01|  5.0000e-01|  5.0000e-01|  5.0000e-01|   -5.282354|   -5.656620|   -5.870366|   -5.650275|   -5.450655|  -13.023594|    2.957584|
|         214|  6.7692e+00|  2.4332e-08|  7.6951e-01|  5.0000e-01|  5.0000e-01|  5.0000e-01|   -5.284687|   -5.657474|   -5.869240|   -5.647126|   -5.454559|  -13.021655|    2.945316|
|         215|  6.7704e+00|  2.4277e-08|  7.6951e-01|  5.0000e-01|  5.0000e-01|  5.0000e-01|   -5.284120|   -5.659717|   -5.866919|   -5.643953|   -5.454660|  -13.017023|    2.933680|
|         216|  6.7706e+00|  2.4223e-08|  7.6951e-01|  5.0000e-01|  5.0000e-01|  5.0000e-01|   -5.280780|   -5.662991|   -5.863771|   -5.641238|   -5.450975|  -13.010487|    2.922931|
|         217|  6.7710e+00|  2.4169e-08|  7.6951e-01|  5.0000e-01|  5.0000e-01|  5.0000e-01|   -5.275291|   -5.666724|   -5.860278|   -5.639370|   -5.444210|  -13.002976|    2.913296|
|         218|  6.7707e+00|  2.4116e-08|  7.6951e-01|  5.0000e-01|  5.0000e-01|  5.0000e-01|   -5.268602|   -5.670157|   -5.856967|   -5.638578|   -5.435593|  -12.995355|    2.904970|
|         219|  6.7706e+00|  2.4063e-08|  7.6951e-01|  5.0000e-01|  5.0000e-01|  5.0000e-01|   -5.261811|   -5.672540|   -5.854323|   -5.638911|   -5.426593|  -12.988297|    2.898115|
|         220|  6.7703e+00|  2.4011e-08|  7.6951e-01|  5.0000e-01|  5.0000e-01|  5.0000e-01|   -5.255945|   -5.673283|   -5.852711|   -5.640232|   -5.418599|  -12.982571|    2.892856|
|         221|  6.7706e+00|  2.3958e-08|  7.6951e-01|  5.0000e-01|  5.0000e-01|  5.0000e-01|   -5.251831|   -5.672089|   -5.852335|   -5.642231|   -5.412734|  -12.980356|    2.889277|
|         222|  6.7706e+00|  2.3907e-08|  7.6951e-01|  5.0000e-01|  5.0000e-01|  5.0000e-01|   -5.250123|   -5.669097|   -5.853179|   -5.644460|   -5.409931|  -12.981886|    2.887423|
|         223|  6.7705e+00|  2.3855e-08|  7.6951e-01|  5.0000e-01|  5.0000e-01|  5.0000e-01|   -5.251037|   -5.664754|   -5.854989|   -5.646421|   -5.410553|  -12.986368|    2.887296|
|         224|  6.7703e+00|  2.3804e-08|  7.6951e-01|  5.0000e-01|  5.0000e-01|  5.0000e-01|   -5.254341|   -5.659693|   -5.857343|   -5.647654|   -5.414377|  -12.992600|    2.888859|
|         225|  6.7702e+00|  2.3753e-08|  7.6951e-01|  5.0000e-01|  5.0000e-01|  5.0000e-01|   -5.259426|   -5.654627|   -5.859729|   -5.647829|   -5.420677|  -12.999219|    2.892036|
|         226|  6.7699e+00|  2.3703e-08|  7.6951e-01|  5.0000e-01|  5.0000e-01|  5.0000e-01|   -5.265347|   -5.650277|   -5.861646|   -5.646831|   -5.428306|  -13.004957|    2.896711|
|         227|  6.7694e+00|  2.3653e-08|  7.6951e-01|  5.0000e-01|  5.0000e-01|  5.0000e-01|   -5.270999|   -5.647202|   -5.862682|   -5.644763|   -5.435892|  -13.008753|    2.902738|
|         228|  6.7690e+00|  2.3603e-08|  7.6951e-01|  5.0000e-01|  5.0000e-01|  5.0000e-01|   -5.275306|   -5.645717|   -5.862577|   -5.641923|   -5.442022|  -13.009953|    2.909937|
|         229|  6.7694e+00|  2.3554e-08|  7.6951e-01|  5.0000e-01|  5.0000e-01|  5.0000e-01|   -5.277410|   -5.645886|   -5.861271|   -5.638732|   -5.445484|  -13.008346|    2.918104|
|         230|  6.7692e+00|  2.3505e-08|  7.6951e-01|  5.0000e-01|  5.0000e-01|  5.0000e-01|   -5.276846|   -5.647562|   -5.858902|   -5.635652|   -5.445536|  -13.004191|    2.927013|
|         231|  6.7689e+00|  2.3456e-08|  7.6951e-01|  5.0000e-01|  5.0000e-01|  5.0000e-01|   -5.273664|   -5.650410|   -5.855785|   -5.633115|   -5.442100|  -12.998089|    2.936425|
|         232|  6.7686e+00|  2.3408e-08|  7.6951e-01|  5.0000e-01|  5.0000e-01|  5.0000e-01|   -5.268380|   -5.653911|   -5.852341|   -5.631462|   -5.435717|  -12.990804|    2.946095|
|         233|  6.7684e+00|  2.3360e-08|  7.6951e-01|  5.0000e-01|  5.0000e-01|  5.0000e-01|   -5.261822|   -5.657320|   -5.849043|   -5.630889|   -5.427411|  -12.983113|    2.955776|
|         234|  6.7680e+00|  2.3312e-08|  7.6951e-01|  5.0000e-01|  5.0000e-01|  5.0000e-01|   -5.254993|   -5.659854|   -5.846346|   -5.631419|   -5.418491|  -12.975652|    2.965223|
|         235|  6.7678e+00|  2.3265e-08|  7.6951e-01|  5.0000e-01|  5.0000e-01|  5.0000e-01|   -5.248884|   -5.660860|   -5.844620|   -5.632899|   -5.410279|  -12.969083|    2.974203|
|         236|  6.7684e+00|  2.3218e-08|  7.6951e-01|  5.0000e-01|  5.0000e-01|  5.0000e-01|   -5.244327|   -5.659944|   -5.844094|   -5.635009|   -5.403902|  -12.965572|    2.982500|
|         237|  6.7684e+00|  2.3171e-08|  7.6951e-01|  5.0000e-01|  5.0000e-01|  5.0000e-01|   -5.242015|   -5.657138|   -5.844807|   -5.637306|   -5.400343|  -12.965802|    2.989919|
|         238|  6.7679e+00|  2.3125e-08|  7.6951e-01|  5.0000e-01|  5.0000e-01|  5.0000e-01|   -5.242273|   -5.652828|   -5.846570|   -5.639312|   -5.400120|  -12.969217|    2.996291|
|         239|  6.7678e+00|  2.3078e-08|  7.6951e-01|  5.0000e-01|  5.0000e-01|  5.0000e-01|   -5.244994|   -5.647620|   -5.849009|   -5.640605|   -5.403182|  -12.974794|    3.001478|
|         240|  6.7672e+00|  2.3033e-08|  7.6951e-01|  5.0000e-01|  5.0000e-01|  5.0000e-01|   -5.249703|   -5.642212|   -5.851645|   -5.640901|   -5.408988|  -12.981248|    3.005374|
|         241|  6.7670e+00|  2.2987e-08|  7.6951e-01|  5.0000e-01|  5.0000e-01|  5.0000e-01|   -5.255568|   -5.637326|   -5.853976|   -5.640116|   -5.416536|  -12.987331|    3.007907|
|         242|  6.7665e+00|  2.2942e-08|  7.6951e-01|  5.0000e-01|  5.0000e-01|  5.0000e-01|   -5.261535|   -5.633553|   -5.855563|   -5.638366|   -5.424518|  -12.991917|    3.009041|
|         243|  6.7662e+00|  2.2897e-08|  7.6951e-01|  5.0000e-01|  5.0000e-01|  5.0000e-01|   -5.266512|   -5.631251|   -5.856104|   -5.635936|   -5.431515|  -12.994186|    3.008777|
|         244|  6.7657e+00|  2.2852e-08|  7.6951e-01|  5.0000e-01|  5.0000e-01|  5.0000e-01|   -5.269557|   -5.630517|   -5.855484|   -5.633210|   -5.436212|  -12.993752|    3.007149|
|         245|  6.7652e+00|  2.2808e-08|  7.6951e-01|  5.0000e-01|  5.0000e-01|  5.0000e-01|   -5.270066|   -5.631231|   -5.853787|   -5.630603|   -5.437679|  -12.990695|    3.004226|
|         246|  6.7647e+00|  2.2764e-08|  7.6951e-01|  5.0000e-01|  5.0000e-01|  5.0000e-01|   -5.267921|   -5.633082|   -5.851285|   -5.628503|   -5.435609|  -12.985427|    3.000108|
|         247|  6.7641e+00|  2.2720e-08|  7.6951e-01|  5.0000e-01|  5.0000e-01|  5.0000e-01|   -5.263492|   -5.635592|   -5.848376|   -5.627207|   -5.430340|  -12.978631|    2.994924|
|         248|  6.7637e+00|  2.2676e-08|  7.6951e-01|  5.0000e-01|  5.0000e-01|  5.0000e-01|   -5.257506|   -5.638064|   -5.845525|   -5.626881|   -5.422764|  -12.971123|    2.988826|
|         249|  6.7634e+00|  2.2633e-08|  7.6951e-01|  5.0000e-01|  5.0000e-01|  5.0000e-01|   -5.250943|   -5.639762|   -5.843197|   -5.627521|   -5.414175|  -12.963593|    2.981987|
|         250|  6.7633e+00|  2.2590e-08|  7.6951e-01|  5.0000e-01|  5.0000e-01|  5.0000e-01|   -5.244821|   -5.640065|   -5.841780|   -5.628962|   -5.405957|  -12.956682|    2.974597|
|         251|  6.7629e+00|  2.2547e-08|  7.6951e-01|  5.0000e-01|  5.0000e-01|  5.0000e-01|   -5.240037|   -5.638589|   -5.841522|   -5.630881|   -5.399332|  -12.952395|    2.966851|
|         252|  6.7630e+00|  2.2505e-08|  7.6951e-01|  5.0000e-01|  5.0000e-01|  5.0000e-01|   -5.237344|   -5.635326|   -5.842484|   -5.632865|   -5.395365|  -12.951613|    2.958953|
|         253|  6.7630e+00|  2.2462e-08|  7.6951e-01|  5.0000e-01|  5.0000e-01|  5.0000e-01|   -5.237135|   -5.630578|   -5.844494|   -5.634483|   -5.394659|  -12.953908|    2.951103|
|         254|  6.7630e+00|  2.2420e-08|  7.6951e-01|  5.0000e-01|  5.0000e-01|  5.0000e-01|   -5.239368|   -5.624842|   -5.847190|   -5.635375|   -5.397237|  -12.958378|    2.943495|
|         255|  6.7632e+00|  2.2379e-08|  7.6951e-01|  5.0000e-01|  5.0000e-01|  5.0000e-01|   -5.243614|   -5.618703|   -5.850097|   -5.635321|   -5.402609|  -12.963929|    2.936316|
|         256|  6.7632e+00|  2.2337e-08|  7.6951e-01|  5.0000e-01|  5.0000e-01|  5.0000e-01|   -5.249087|   -5.612781|   -5.852713|   -5.634273|   -5.409827|  -12.969316|    2.929738|
|         257|  6.7631e+00|  2.2296e-08|  7.6951e-01|  5.0000e-01|  5.0000e-01|  5.0000e-01|   -5.254761|   -5.607581|   -5.854596|   -5.632354|   -5.417607|  -12.973411|    2.923913|
|         258|  6.7636e+00|  2.2255e-08|  7.6951e-01|  5.0000e-01|  5.0000e-01|  5.0000e-01|   -5.259567|   -5.603415|   -5.855440|   -5.629822|   -5.424557|  -12.975400|    2.918973|
|         259|  6.7644e+00|  2.2214e-08|  7.6951e-01|  5.0000e-01|  5.0000e-01|  5.0000e-01|   -5.262559|   -5.600364|   -5.855119|   -5.627009|   -5.429367|  -12.974861|    2.915026|
|         260|  6.7648e+00|  2.2174e-08|  7.6951e-01|  5.0000e-01|  5.0000e-01|  5.0000e-01|   -5.263109|   -5.598316|   -5.853708|   -5.624268|   -5.431080|  -12.971810|    2.912153|
|         261|  6.7646e+00|  2.2133e-08|  7.6951e-01|  5.0000e-01|  5.0000e-01|  5.0000e-01|   -5.261043|   -5.597005|   -5.851467|   -5.621918|   -5.429329|  -12.966590|    2.910409|
|         262|  6.7648e+00|  2.2093e-08|  7.6951e-01|  5.0000e-01|  5.0000e-01|  5.0000e-01|   -5.256665|   -5.596040|   -5.848777|   -5.620200|   -5.424374|  -12.959807|    2.909819|
|         263|  6.7644e+00|  2.2053e-08|  7.6951e-01|  5.0000e-01|  5.0000e-01|  5.0000e-01|   -5.250631|   -5.594867|   -5.846082|   -5.619228|   -5.417014|  -12.952242|    2.910381|
|         264|  6.7638e+00|  2.2014e-08|  7.6951e-01|  5.0000e-01|  5.0000e-01|  5.0000e-01|   -5.243863|   -5.592925|   -5.843832|   -5.618974|   -5.408472|  -12.944533|    2.912063|
|         265|  6.7632e+00|  2.1975e-08|  7.6951e-01|  5.0000e-01|  5.0000e-01|  5.0000e-01|   -5.237333|   -5.589761|   -5.842397|   -5.619265|   -5.400065|  -12.937185|    2.914810|
|         266|  6.7634e+00|  2.1935e-08|  7.6951e-01|  5.0000e-01|  5.0000e-01|  5.0000e-01|   -5.231898|   -5.585114|   -5.842013|   -5.619813|   -5.392968|  -12.931617|    2.918539|
|         267|  6.7637e+00|  2.1897e-08|  7.6951e-01|  5.0000e-01|  5.0000e-01|  5.0000e-01|   -5.228265|   -5.578992|   -5.842743|   -5.620272|   -5.388169|  -12.928999|    2.923145|
|         268|  6.7638e+00|  2.1858e-08|  7.6951e-01|  5.0000e-01|  5.0000e-01|  5.0000e-01|   -5.226842|   -5.571634|   -5.844435|   -5.620304|   -5.386287|  -12.929072|    2.928504|
|         269|  6.7641e+00|  2.1820e-08|  7.6951e-01|  5.0000e-01|  5.0000e-01|  5.0000e-01|   -5.227610|   -5.563417|   -5.846753|   -5.619641|   -5.387375|  -12.931115|    2.934475|
|         270|  6.7642e+00|  2.1781e-08|  7.6951e-01|  5.0000e-01|  5.0000e-01|  5.0000e-01|   -5.230181|   -5.554778|   -5.849257|   -5.618143|   -5.390990|  -12.934202|    2.940904|
|         271|  6.7642e+00|  2.1743e-08|  7.6951e-01|  5.0000e-01|  5.0000e-01|  5.0000e-01|   -5.233852|   -5.546174|   -5.851484|   -5.615801|   -5.396286|  -12.937255|    2.947629|
|         272|  6.7642e+00|  2.1706e-08|  7.6951e-01|  5.0000e-01|  5.0000e-01|  5.0000e-01|   -5.237703|   -5.537975|   -5.853024|   -5.612735|   -5.402104|  -12.939316|    2.954484|
|         273|  6.7647e+00|  2.1668e-08|  7.6951e-01|  5.0000e-01|  5.0000e-01|  5.0000e-01|   -5.240775|   -5.530409|   -5.853593|   -5.609159|   -5.407199|  -12.939688|    2.961303|
|         274|  6.7645e+00|  2.1631e-08|  7.6951e-01|  5.0000e-01|  5.0000e-01|  5.0000e-01|   -5.242231|   -5.523539|   -5.853071|   -5.605336|   -5.410424|  -12.938007|    2.967924|
|         275|  6.7645e+00|  2.1594e-08|  7.6951e-01|  5.0000e-01|  5.0000e-01|  5.0000e-01|   -5.241513|   -5.517284|   -5.851524|   -5.601536|   -5.410939|  -12.934253|    2.974190|
|         276|  6.7647e+00|  2.1557e-08|  7.6951e-01|  5.0000e-01|  5.0000e-01|  5.0000e-01|   -5.238454|   -5.511466|   -5.849176|   -5.598002|   -5.408406|  -12.928686|    2.979960|
|         277|  6.7649e+00|  2.1520e-08|  7.6951e-01|  5.0000e-01|  5.0000e-01|  5.0000e-01|   -5.233293|   -5.505838|   -5.846373|   -5.594905|   -5.403022|  -12.921799|    2.985103|
|         278|  6.7651e+00|  2.1483e-08|  7.6951e-01|  5.0000e-01|  5.0000e-01|  5.0000e-01|   -5.226577|   -5.500071|   -5.843514|   -5.592323|   -5.395424|  -12.914191|    2.989509|
|         279|  6.7653e+00|  2.1447e-08|  7.6951e-01|  5.0000e-01|  5.0000e-01|  5.0000e-01|   -5.219076|   -5.493832|   -5.841010|   -5.590222|   -5.386614|  -12.906359|    2.993088|
|         280|  6.7657e+00|  2.1411e-08|  7.6951e-01|  5.0000e-01|  5.0000e-01|  5.0000e-01|   -5.211620|   -5.486866|   -5.839210|   -5.588461|   -5.377707|  -12.898705|    2.995770|
|         281|  6.7656e+00|  2.1375e-08|  7.6951e-01|  5.0000e-01|  5.0000e-01|  5.0000e-01|   -5.204959|   -5.479032|   -5.838352|   -5.586827|   -5.369725|  -12.892013|    2.997510|
|         282|  6.7658e+00|  2.1339e-08|  7.6951e-01|  5.0000e-01|  5.0000e-01|  5.0000e-01|   -5.199700|   -5.470341|   -5.838527|   -5.585079|   -5.363523|  -12.887620|    2.998285|
|         283|  6.7658e+00|  2.1304e-08|  7.6951e-01|  5.0000e-01|  5.0000e-01|  5.0000e-01|   -5.196259|   -5.460945|   -5.839637|   -5.582981|   -5.359734|  -12.885556|    2.998097|
|         284|  6.7661e+00|  2.1269e-08|  7.6951e-01|  5.0000e-01|  5.0000e-01|  5.0000e-01|   -5.194679|   -5.451079|   -5.841408|   -5.580361|   -5.358494|  -12.885332|    2.996971|
|         285|  6.7663e+00|  2.1234e-08|  7.6951e-01|  5.0000e-01|  5.0000e-01|  5.0000e-01|   -5.194682|   -5.441018|   -5.843459|   -5.577134|   -5.359506|  -12.886207|    2.994953|
|         286|  6.7663e+00|  2.1199e-08|  7.6951e-01|  5.0000e-01|  5.0000e-01|  5.0000e-01|   -5.195723|   -5.431040|   -5.845363|   -5.573302|   -5.362109|  -12.887363|    2.992112|
|         287|  6.7665e+00|  2.1164e-08|  7.6951e-01|  5.0000e-01|  5.0000e-01|  5.0000e-01|   -5.197063|   -5.421383|   -5.846728|   -5.568954|   -5.365365|  -12.888006|    2.988533|
|         288|  6.7665e+00|  2.1129e-08|  7.6951e-01|  5.0000e-01|  5.0000e-01|  5.0000e-01|   -5.197914|   -5.412204|   -5.847265|   -5.564241|   -5.368236|  -12.887533|    2.984318|
|         289|  6.7668e+00|  2.1095e-08|  7.6951e-01|  5.0000e-01|  5.0000e-01|  5.0000e-01|   -5.197580|   -5.403562|   -5.846827|   -5.559349|   -5.369756|  -12.885595|    2.979583|
|         290|  6.7672e+00|  2.1061e-08|  7.6951e-01|  5.0000e-01|  5.0000e-01|  5.0000e-01|   -5.195577|   -5.395428|   -5.845429|   -5.554469|   -5.369197|  -12.882096|    2.974455|
|         291|  6.7676e+00|  2.1027e-08|  7.6951e-01|  5.0000e-01|  5.0000e-01|  5.0000e-01|   -5.191717|   -5.387708|   -5.843245|   -5.549768|   -5.366205|  -12.877163|    2.969064|
|         292|  6.7676e+00|  2.0993e-08|  7.6951e-01|  5.0000e-01|  5.0000e-01|  5.0000e-01|   -5.186136|   -5.380272|   -5.840568|   -5.545371|   -5.360853|  -12.871096|    2.963546|
|         293|  6.7678e+00|  2.0959e-08|  7.6951e-01|  5.0000e-01|  5.0000e-01|  5.0000e-01|   -5.179216|   -5.372948|   -5.837757|   -5.541339|   -5.353564|  -12.864324|    2.958036|
|         294|  6.7679e+00|  2.0926e-08|  7.6951e-01|  5.0000e-01|  5.0000e-01|  5.0000e-01|   -5.171528|   -5.365552|   -5.835197|   -5.537658|   -5.345070|  -12.857247|    2.952664|
|         295|  6.7678e+00|  2.0893e-08|  7.6951e-01|  5.0000e-01|  5.0000e-01|  5.0000e-01|   -5.163735|   -5.357934|   -5.833237|   -5.534248|   -5.336269|  -12.850226|    2.947557|
|         296|  6.7679e+00|  2.0860e-08|  7.6951e-01|  5.0000e-01|  5.0000e-01|  5.0000e-01|   -5.156469|   -5.350003|   -5.832138|   -5.530984|   -5.328037|  -12.843753|    2.942829|
|         297|  6.7682e+00|  2.0827e-08|  7.6951e-01|  5.0000e-01|  5.0000e-01|  5.0000e-01|   -5.150258|   -5.341745|   -5.832033|   -5.527720|   -5.321140|  -12.839001|    2.938586|
|         298|  6.7685e+00|  2.0794e-08|  7.6951e-01|  5.0000e-01|  5.0000e-01|  5.0000e-01|   -5.145504|   -5.333227|   -5.832882|   -5.524310|   -5.316195|  -12.836260|    2.934919|
|         299|  6.7684e+00|  2.0761e-08|  7.6951e-01|  5.0000e-01|  5.0000e-01|  5.0000e-01|   -5.142317|   -5.324563|   -5.834470|   -5.520642|   -5.313431|  -12.835252|    2.931903|
|         300|  6.7681e+00|  2.0729e-08|  7.6951e-01|  5.0000e-01|  5.0000e-01|  5.0000e-01|   -5.140540|   -5.315902|   -5.836454|   -5.516655|   -5.312700|  -12.835427|    2.929595|
+-----------------------------------------------------------------------+
|        File Writing Summary       |              Filename             |
+-----------------------------------------------------------------------+
|SU2 binary restart                 |restart_flow.dat                   |
|Paraview                           |flow.vtu                           |
|Paraview surface                   |surface_flow.vtu                   |
+-----------------------------------------------------------------------+
+-------------------------------------------------------------------------------------------------------------------------------------------------------------------------------------+
|  Inner_Iter|   Time(sec)|      Min DT|      Max DT|     Min CFL|     Max CFL|     Avg CFL|    rms[Rho]|   rms[RhoU]|   rms[RhoV]|   rms[RhoW]|   rms[RhoE]|     rms[nu]|          CD|
+-------------------------------------------------------------------------------------------------------------------------------------------------------------------------------------+
|         301|  6.8466e+00|  2.0697e-08|  7.6951e-01|  5.0000e-01|  5.0000e-01|  5.0000e-01|   -5.139782|   -5.307394|   -5.838429|   -5.512340|   -5.313520|  -12.836134|    2.928036|
|         302|  6.8521e+00|  2.0664e-08|  7.6951e-01|  5.0000e-01|  5.0000e-01|  5.0000e-01|   -5.139489|   -5.299180|   -5.840002|   -5.507743|   -5.315164|  -12.836705|    2.927248|
|         303|  6.8562e+00|  2.0633e-08|  7.6951e-01|  5.0000e-01|  5.0000e-01|  5.0000e-01|   -5.139042|   -5.291364|   -5.840857|   -5.502955|   -5.316785|  -12.836599|    2.927233|
|         304|  6.8592e+00|  2.0601e-08|  7.6951e-01|  5.0000e-01|  5.0000e-01|  5.0000e-01|   -5.137877|   -5.283996|   -5.840807|   -5.498090|   -5.317575|  -12.835454|    2.927975|
|         305|  6.8622e+00|  2.0569e-08|  7.6951e-01|  5.0000e-01|  5.0000e-01|  5.0000e-01|   -5.135580|   -5.277073|   -5.839824|   -5.493274|   -5.316895|  -12.833112|    2.929443|
|         306|  6.8650e+00|  2.0538e-08|  7.6951e-01|  5.0000e-01|  5.0000e-01|  5.0000e-01|   -5.131949|   -5.270553|   -5.838033|   -5.488617|   -5.314378|  -12.829607|    2.931586|
|         307|  6.8672e+00|  2.0506e-08|  7.6951e-01|  5.0000e-01|  5.0000e-01|  5.0000e-01|   -5.127023|   -5.264365|   -5.835688|   -5.484211|   -5.309992|  -12.825094|    2.934338|
|         308|  6.8693e+00|  2.0475e-08|  7.6951e-01|  5.0000e-01|  5.0000e-01|  5.0000e-01|   -5.121040|   -5.258415|   -5.833121|   -5.480107|   -5.303983|  -12.819881|    2.937623|
|         309|  6.8718e+00|  2.0444e-08|  7.6951e-01|  5.0000e-01|  5.0000e-01|  5.0000e-01|   -5.114398|   -5.252589|   -5.830701|   -5.476315|   -5.296863|  -12.814319|    2.941349|
|         310|  6.8735e+00|  2.0414e-08|  7.6951e-01|  5.0000e-01|  5.0000e-01|  5.0000e-01|   -5.107597|   -5.246787|   -5.828778|   -5.472803|   -5.289336|  -12.808734|    2.945419|
|         311|  6.8740e+00|  2.0383e-08|  7.6951e-01|  5.0000e-01|  5.0000e-01|  5.0000e-01|   -5.101147|   -5.240937|   -5.827626|   -5.469507|   -5.282132|  -12.803465|    2.949726|
|         312|  6.8749e+00|  2.0352e-08|  7.6951e-01|  5.0000e-01|  5.0000e-01|  5.0000e-01|   -5.095491|   -5.235009|   -5.827405|   -5.466341|   -5.275914|  -12.799410|    2.954163|
|         313|  6.8753e+00|  2.0322e-08|  7.6951e-01|  5.0000e-01|  5.0000e-01|  5.0000e-01|   -5.090986|   -5.229017|   -5.828113|   -5.463212|   -5.271243|  -12.797040|    2.958620|
|         314|  6.8754e+00|  2.0292e-08|  7.6951e-01|  5.0000e-01|  5.0000e-01|  5.0000e-01|   -5.087784|   -5.223012|   -5.829574|   -5.460038|   -5.268400|  -12.796227|    2.962988|
|         315|  6.8751e+00|  2.0262e-08|  7.6951e-01|  5.0000e-01|  5.0000e-01|  5.0000e-01|   -5.085809|   -5.217069|   -5.831479|   -5.456762|   -5.267338|  -12.796584|    2.967164|
|         316|  6.8748e+00|  2.0232e-08|  7.6951e-01|  5.0000e-01|  5.0000e-01|  5.0000e-01|   -5.084795|   -5.211270|   -5.833443|   -5.453359|   -5.267714|  -12.797580|    2.971051|
|         317|  6.8744e+00|  2.0202e-08|  7.6951e-01|  5.0000e-01|  5.0000e-01|  5.0000e-01|   -5.084329|   -5.205704|   -5.835081|   -5.449839|   -5.268975|  -12.798646|    2.974560|
|         318|  6.8740e+00|  2.0172e-08|  7.6951e-01|  5.0000e-01|  5.0000e-01|  5.0000e-01|   -5.083931|   -5.200439|   -5.836073|   -5.446242|   -5.270437|  -12.799290|    2.977615|
|         319|  6.8740e+00|  2.0143e-08|  7.6951e-01|  5.0000e-01|  5.0000e-01|  5.0000e-01|   -5.083146|   -5.195518|   -5.836215|   -5.442632|   -5.271431|  -12.799157|    2.980152|
|         320|  6.8738e+00|  2.0114e-08|  7.6951e-01|  5.0000e-01|  5.0000e-01|  5.0000e-01|   -5.081618|   -5.190951|   -5.835451|   -5.439082|   -5.271401|  -12.798056|    2.982119|
|         321|  6.8735e+00|  2.0084e-08|  7.6951e-01|  5.0000e-01|  5.0000e-01|  5.0000e-01|   -5.079140|   -5.186717|   -5.833872|   -5.435665|   -5.269989|  -12.795959|    2.983483|
|         322|  6.8730e+00|  2.0055e-08|  7.6951e-01|  5.0000e-01|  5.0000e-01|  5.0000e-01|   -5.075682|   -5.182777|   -5.831699|   -5.432444|   -5.267091|  -12.792948|    2.984222|
|         323|  6.8725e+00|  2.0026e-08|  7.6951e-01|  5.0000e-01|  5.0000e-01|  5.0000e-01|   -5.071379|   -5.179072|   -5.829231|   -5.429467|   -5.262834|  -12.789247|    2.984331|
|         324|  6.8725e+00|  1.9998e-08|  7.6951e-01|  5.0000e-01|  5.0000e-01|  5.0000e-01|   -5.066497|   -5.175527|   -5.826808|   -5.426756|   -5.257562|  -12.785159|    2.983824|
|         325|  6.8723e+00|  1.9969e-08|  7.6951e-01|  5.0000e-01|  5.0000e-01|  5.0000e-01|   -5.061406|   -5.172064|   -5.824769|   -5.424307|   -5.251804|  -12.780972|    2.982723|
|         326|  6.8726e+00|  1.9940e-08|  7.6951e-01|  5.0000e-01|  5.0000e-01|  5.0000e-01|   -5.056507|   -5.168621|   -5.823384|   -5.422092|   -5.246151|  -12.776940|    2.981071|
|         327|  6.8724e+00|  1.9912e-08|  7.6951e-01|  5.0000e-01|  5.0000e-01|  5.0000e-01|   -5.052171|   -5.165156|   -5.822827|   -5.420059|   -5.241167|  -12.773627|    2.978918|
|         328|  6.8719e+00|  1.9884e-08|  7.6951e-01|  5.0000e-01|  5.0000e-01|  5.0000e-01|   -5.048708|   -5.161661|   -5.823135|   -5.418142|   -5.237346|  -12.771692|    2.976330|
|         329|  6.8717e+00|  1.9856e-08|  7.6951e-01|  5.0000e-01|  5.0000e-01|  5.0000e-01|   -5.046306|   -5.158153|   -5.824183|   -5.416275|   -5.235014|  -12.771158|    2.973378|
|         330|  6.8715e+00|  1.9828e-08|  7.6951e-01|  5.0000e-01|  5.0000e-01|  5.0000e-01|   -5.044958|   -5.154672|   -5.825710|   -5.414400|   -5.234216|  -12.771759|    2.970143|
|         331|  6.8716e+00|  1.9800e-08|  7.6951e-01|  5.0000e-01|  5.0000e-01|  5.0000e-01|   -5.044496|   -5.151270|   -5.827374|   -5.412477|   -5.234741|  -12.773076|    2.966711|
|         332|  6.8712e+00|  1.9772e-08|  7.6951e-01|  5.0000e-01|  5.0000e-01|  5.0000e-01|   -5.044619|   -5.148007|   -5.828818|   -5.410491|   -5.236178|  -12.774614|    2.963171|
|         333|  6.8717e+00|  1.9745e-08|  7.6951e-01|  5.0000e-01|  5.0000e-01|  5.0000e-01|   -5.044945|   -5.144941|   -5.829729|   -5.408450|   -5.237979|  -12.775915|    2.959612|
|         334|  6.8713e+00|  1.9717e-08|  7.6951e-01|  5.0000e-01|  5.0000e-01|  5.0000e-01|   -5.045090|   -5.142109|   -5.829896|   -5.406383|   -5.239571|  -12.776619|    2.956122|
|         335|  6.8708e+00|  1.9690e-08|  7.6951e-01|  5.0000e-01|  5.0000e-01|  5.0000e-01|   -5.044724|   -5.139530|   -5.829233|   -5.404328|   -5.240449|  -12.776503|    2.952786|
|         336|  6.8703e+00|  1.9663e-08|  7.6951e-01|  5.0000e-01|  5.0000e-01|  5.0000e-01|   -5.043626|   -5.137199|   -5.827787|   -5.402336|   -5.240246|  -12.775483|    2.949683|
|         337|  6.8700e+00|  1.9636e-08|  7.6951e-01|  5.0000e-01|  5.0000e-01|  5.0000e-01|   -5.041711|   -5.135092|   -5.825731|   -5.400454|   -5.238791|  -12.773589|    2.946886|
|         338|  6.8698e+00|  1.9609e-08|  7.6951e-01|  5.0000e-01|  5.0000e-01|  5.0000e-01|   -5.039035|   -5.133171|   -5.823318|   -5.398728|   -5.236119|  -12.770976|    2.944458|
|         339|  6.8694e+00|  1.9582e-08|  7.6951e-01|  5.0000e-01|  5.0000e-01|  5.0000e-01|   -5.035769|   -5.131379|   -5.820848|   -5.397194|   -5.232440|  -12.767898|    2.942452|
|         340|  6.8692e+00|  1.9555e-08|  7.6951e-01|  5.0000e-01|  5.0000e-01|  5.0000e-01|   -5.032191|   -5.129655|   -5.818635|   -5.395867|   -5.228148|  -12.764616|    2.940912|
|         341|  6.8690e+00|  1.9528e-08|  7.6951e-01|  5.0000e-01|  5.0000e-01|  5.0000e-01|   -5.028630|   -5.127940|   -5.816950|   -5.394744|   -5.223729|  -12.761361|    2.939867|
|         342|  6.8690e+00|  1.9502e-08|  7.6951e-01|  5.0000e-01|  5.0000e-01|  5.0000e-01|   -5.025416|   -5.126189|   -5.815988|   -5.393799|   -5.219687|  -12.758441|    2.939337|
|         343|  6.8686e+00|  1.9476e-08|  7.6951e-01|  5.0000e-01|  5.0000e-01|  5.0000e-01|   -5.022836|   -5.124381|   -5.815834|   -5.392984|   -5.216476|  -12.756585|    2.939325|
|         344|  6.8681e+00|  1.9449e-08|  7.6951e-01|  5.0000e-01|  5.0000e-01|  5.0000e-01|   -5.021115|   -5.122518|   -5.816430|   -5.392243|   -5.214473|  -12.756028|    2.939827|
|         345|  6.8678e+00|  1.9423e-08|  7.6951e-01|  5.0000e-01|  5.0000e-01|  5.0000e-01|   -5.020318|   -5.120623|   -5.817581|   -5.391517|   -5.213826|  -12.756623|    2.940821|
|         346|  6.8676e+00|  1.9397e-08|  7.6951e-01|  5.0000e-01|  5.0000e-01|  5.0000e-01|   -5.020359|   -5.118734|   -5.818997|   -5.390759|   -5.214448|  -12.758041|    2.942279|
|         347|  6.8675e+00|  1.9371e-08|  7.6951e-01|  5.0000e-01|  5.0000e-01|  5.0000e-01|   -5.021023|   -5.116899|   -5.820348|   -5.389934|   -5.216042|  -12.759854|    2.944158|
|         348|  6.8673e+00|  1.9345e-08|  7.6951e-01|  5.0000e-01|  5.0000e-01|  5.0000e-01|   -5.022000|   -5.115172|   -5.821330|   -5.389031|   -5.218171|  -12.761612|    2.946408|
|         349|  6.8668e+00|  1.9320e-08|  7.6951e-01|  5.0000e-01|  5.0000e-01|  5.0000e-01|   -5.022942|   -5.113592|   -5.821706|   -5.388055|   -5.220315|  -12.762936|    2.948969|
[...]
|        9934|  6.4070e+00|  6.1924e-09|  7.6965e-01|  5.0000e-01|  5.0000e-01|  5.0000e-01|   -5.620859|   -5.713862|   -6.309691|   -5.955106|   -5.890774|   -8.370927|    2.039856|
|        9935|  6.4070e+00|  6.1924e-09|  7.6965e-01|  5.0000e-01|  5.0000e-01|  5.0000e-01|   -5.621400|   -5.714384|   -6.310130|   -5.955555|   -5.891203|   -8.371598|    2.039851|
|        9936|  6.4069e+00|  6.1923e-09|  7.6965e-01|  5.0000e-01|  5.0000e-01|  5.0000e-01|   -5.621944|   -5.714911|   -6.310572|   -5.956008|   -5.891636|   -8.372273|    2.039846|
|        9937|  6.4069e+00|  6.1923e-09|  7.6965e-01|  5.0000e-01|  5.0000e-01|  5.0000e-01|   -5.622493|   -5.715442|   -6.311014|   -5.956465|   -5.892072|   -8.372953|    2.039842|
|        9938|  6.4069e+00|  6.1922e-09|  7.6965e-01|  5.0000e-01|  5.0000e-01|  5.0000e-01|   -5.623046|   -5.715978|   -6.311457|   -5.956927|   -5.892513|   -8.373639|    2.039838|
|        9939|  6.4069e+00|  6.1922e-09|  7.6965e-01|  5.0000e-01|  5.0000e-01|  5.0000e-01|   -5.623603|   -5.716519|   -6.311901|   -5.957392|   -5.892957|   -8.374329|    2.039834|
|        9940|  6.4069e+00|  6.1921e-09|  7.6965e-01|  5.0000e-01|  5.0000e-01|  5.0000e-01|   -5.624164|   -5.717065|   -6.312346|   -5.957862|   -5.893405|   -8.375025|    2.039830|
|        9941|  6.4068e+00|  6.1920e-09|  7.6965e-01|  5.0000e-01|  5.0000e-01|  5.0000e-01|   -5.624729|   -5.717615|   -6.312791|   -5.958335|   -5.893856|   -8.375727|    2.039826|
|        9942|  6.4068e+00|  6.1920e-09|  7.6965e-01|  5.0000e-01|  5.0000e-01|  5.0000e-01|   -5.625299|   -5.718169|   -6.313238|   -5.958812|   -5.894311|   -8.376434|    2.039823|
|        9943|  6.4068e+00|  6.1919e-09|  7.6965e-01|  5.0000e-01|  5.0000e-01|  5.0000e-01|   -5.625873|   -5.718729|   -6.313685|   -5.959294|   -5.894770|   -8.377148|    2.039819|
|        9944|  6.4068e+00|  6.1919e-09|  7.6965e-01|  5.0000e-01|  5.0000e-01|  5.0000e-01|   -5.626451|   -5.719293|   -6.314133|   -5.959780|   -5.895233|   -8.377867|    2.039816|
|        9945|  6.4068e+00|  6.1918e-09|  7.6965e-01|  5.0000e-01|  5.0000e-01|  5.0000e-01|   -5.627033|   -5.719861|   -6.314582|   -5.960270|   -5.895699|   -8.378593|    2.039813|
|        9946|  6.4068e+00|  6.1918e-09|  7.6965e-01|  5.0000e-01|  5.0000e-01|  5.0000e-01|   -5.627619|   -5.720434|   -6.315033|   -5.960763|   -5.896169|   -8.379325|    2.039810|
|        9947|  6.4067e+00|  6.1917e-09|  7.6965e-01|  5.0000e-01|  5.0000e-01|  5.0000e-01|   -5.628210|   -5.721012|   -6.315483|   -5.961261|   -5.896642|   -8.380064|    2.039807|
|        9948|  6.4067e+00|  6.1917e-09|  7.6965e-01|  5.0000e-01|  5.0000e-01|  5.0000e-01|   -5.628803|   -5.721593|   -6.315935|   -5.961763|   -5.897119|   -8.380810|    2.039805|
|        9949|  6.4067e+00|  6.1916e-09|  7.6965e-01|  5.0000e-01|  5.0000e-01|  5.0000e-01|   -5.629401|   -5.722179|   -6.316386|   -5.962268|   -5.897599|   -8.381562|    2.039802|
|        9950|  6.4067e+00|  6.1916e-09|  7.6965e-01|  5.0000e-01|  5.0000e-01|  5.0000e-01|   -5.630002|   -5.722769|   -6.316837|   -5.962776|   -5.898082|   -8.382322|    2.039800|
|        9951|  6.4066e+00|  6.1915e-09|  7.6965e-01|  5.0000e-01|  5.0000e-01|  5.0000e-01|   -5.630607|   -5.723363|   -6.317290|   -5.963288|   -5.898568|   -8.383089|    2.039798|
|        9952|  6.4066e+00|  6.1915e-09|  7.6965e-01|  5.0000e-01|  5.0000e-01|  5.0000e-01|   -5.631214|   -5.723961|   -6.317742|   -5.963803|   -5.899057|   -8.383863|    2.039796|
|        9953|  6.4066e+00|  6.1914e-09|  7.6965e-01|  5.0000e-01|  5.0000e-01|  5.0000e-01|   -5.631827|   -5.724564|   -6.318197|   -5.964324|   -5.899551|   -8.384645|    2.039794|
|        9954|  6.4066e+00|  6.1914e-09|  7.6965e-01|  5.0000e-01|  5.0000e-01|  5.0000e-01|   -5.632443|   -5.725171|   -6.318652|   -5.964847|   -5.900048|   -8.385435|    2.039792|
|        9955|  6.4066e+00|  6.1913e-09|  7.6965e-01|  5.0000e-01|  5.0000e-01|  5.0000e-01|   -5.633062|   -5.725781|   -6.319107|   -5.965373|   -5.900547|   -8.386233|    2.039791|
|        9956|  6.4065e+00|  6.1913e-09|  7.6965e-01|  5.0000e-01|  5.0000e-01|  5.0000e-01|   -5.633685|   -5.726395|   -6.319561|   -5.965903|   -5.901049|   -8.387038|    2.039789|
|        9957|  6.4065e+00|  6.1912e-09|  7.6965e-01|  5.0000e-01|  5.0000e-01|  5.0000e-01|   -5.634310|   -5.727012|   -6.320016|   -5.966435|   -5.901553|   -8.387853|    2.039788|
|        9958|  6.4065e+00|  6.1912e-09|  7.6965e-01|  5.0000e-01|  5.0000e-01|  5.0000e-01|   -5.634938|   -5.727633|   -6.320471|   -5.966971|   -5.902061|   -8.388675|    2.039787|
|        9959|  6.4065e+00|  6.1911e-09|  7.6965e-01|  5.0000e-01|  5.0000e-01|  5.0000e-01|   -5.635570|   -5.728258|   -6.320926|   -5.967510|   -5.902571|   -8.389507|    2.039786|
|        9960|  6.4065e+00|  6.1911e-09|  7.6965e-01|  5.0000e-01|  5.0000e-01|  5.0000e-01|   -5.636204|   -5.728885|   -6.321381|   -5.968052|   -5.903083|   -8.390347|    2.039786|
|        9961|  6.4065e+00|  6.1910e-09|  7.6965e-01|  5.0000e-01|  5.0000e-01|  5.0000e-01|   -5.636841|   -5.729516|   -6.321835|   -5.968596|   -5.903598|   -8.391196|    2.039785|
|        9962|  6.4064e+00|  6.1910e-09|  7.6965e-01|  5.0000e-01|  5.0000e-01|  5.0000e-01|   -5.637480|   -5.730150|   -6.322290|   -5.969144|   -5.904116|   -8.392054|    2.039785|
|        9963|  6.4064e+00|  6.1909e-09|  7.6965e-01|  5.0000e-01|  5.0000e-01|  5.0000e-01|   -5.638123|   -5.730788|   -6.322744|   -5.969695|   -5.904636|   -8.392921|    2.039784|
|        9964|  6.4064e+00|  6.1909e-09|  7.6965e-01|  5.0000e-01|  5.0000e-01|  5.0000e-01|   -5.638768|   -5.731428|   -6.323197|   -5.970248|   -5.905158|   -8.393798|    2.039784|
|        9965|  6.4064e+00|  6.1908e-09|  7.6965e-01|  5.0000e-01|  5.0000e-01|  5.0000e-01|   -5.639416|   -5.732072|   -6.323651|   -5.970804|   -5.905682|   -8.394685|    2.039784|
|        9966|  6.4064e+00|  6.1908e-09|  7.6965e-01|  5.0000e-01|  5.0000e-01|  5.0000e-01|   -5.640066|   -5.732719|   -6.324105|   -5.971364|   -5.906209|   -8.395581|    2.039785|
|        9967|  6.4065e+00|  6.1907e-09|  7.6965e-01|  5.0000e-01|  5.0000e-01|  5.0000e-01|   -5.640719|   -5.733369|   -6.324558|   -5.971926|   -5.906739|   -8.396487|    2.039785|
|        9968|  6.4065e+00|  6.1907e-09|  7.6965e-01|  5.0000e-01|  5.0000e-01|  5.0000e-01|   -5.641375|   -5.734022|   -6.325011|   -5.972490|   -5.907270|   -8.397404|    2.039786|
|        9969|  6.4065e+00|  6.1907e-09|  7.6965e-01|  5.0000e-01|  5.0000e-01|  5.0000e-01|   -5.642032|   -5.734677|   -6.325464|   -5.973058|   -5.907804|   -8.398330|    2.039786|
|        9970|  6.4065e+00|  6.1906e-09|  7.6965e-01|  5.0000e-01|  5.0000e-01|  5.0000e-01|   -5.642693|   -5.735336|   -6.325917|   -5.973628|   -5.908339|   -8.399267|    2.039787|
|        9971|  6.4065e+00|  6.1906e-09|  7.6965e-01|  5.0000e-01|  5.0000e-01|  5.0000e-01|   -5.643355|   -5.735997|   -6.326370|   -5.974201|   -5.908877|   -8.400215|    2.039788|
|        9972|  6.4065e+00|  6.1905e-09|  7.6965e-01|  5.0000e-01|  5.0000e-01|  5.0000e-01|   -5.644020|   -5.736661|   -6.326822|   -5.974778|   -5.909418|   -8.401173|    2.039790|
|        9973|  6.4065e+00|  6.1905e-09|  7.6965e-01|  5.0000e-01|  5.0000e-01|  5.0000e-01|   -5.644688|   -5.737328|   -6.327275|   -5.975357|   -5.909960|   -8.402142|    2.039791|
|        9974|  6.4065e+00|  6.1904e-09|  7.6965e-01|  5.0000e-01|  5.0000e-01|  5.0000e-01|   -5.645358|   -5.737998|   -6.327727|   -5.975939|   -5.910505|   -8.403122|    2.039793|
|        9975|  6.4065e+00|  6.1904e-09|  7.6965e-01|  5.0000e-01|  5.0000e-01|  5.0000e-01|   -5.646030|   -5.738671|   -6.328178|   -5.976523|   -5.911052|   -8.404113|    2.039794|
|        9976|  6.4065e+00|  6.1904e-09|  7.6965e-01|  5.0000e-01|  5.0000e-01|  5.0000e-01|   -5.646705|   -5.739346|   -6.328629|   -5.977110|   -5.911601|   -8.405116|    2.039796|
|        9977|  6.4065e+00|  6.1903e-09|  7.6965e-01|  5.0000e-01|  5.0000e-01|  5.0000e-01|   -5.647381|   -5.740024|   -6.329080|   -5.977700|   -5.912152|   -8.406130|    2.039798|
|        9978|  6.4065e+00|  6.1903e-09|  7.6965e-01|  5.0000e-01|  5.0000e-01|  5.0000e-01|   -5.648060|   -5.740705|   -6.329529|   -5.978293|   -5.912705|   -8.407155|    2.039801|
|        9979|  6.4065e+00|  6.1902e-09|  7.6965e-01|  5.0000e-01|  5.0000e-01|  5.0000e-01|   -5.648741|   -5.741388|   -6.329979|   -5.978888|   -5.913260|   -8.408193|    2.039803|
|        9980|  6.4065e+00|  6.1902e-09|  7.6965e-01|  5.0000e-01|  5.0000e-01|  5.0000e-01|   -5.649423|   -5.742074|   -6.330428|   -5.979487|   -5.913816|   -8.409242|    2.039805|
|        9981|  6.4065e+00|  6.1902e-09|  7.6965e-01|  5.0000e-01|  5.0000e-01|  5.0000e-01|   -5.650108|   -5.742763|   -6.330876|   -5.980088|   -5.914375|   -8.410303|    2.039808|
|        9982|  6.4065e+00|  6.1901e-09|  7.6965e-01|  5.0000e-01|  5.0000e-01|  5.0000e-01|   -5.650795|   -5.743454|   -6.331323|   -5.980692|   -5.914936|   -8.411377|    2.039811|
|        9983|  6.4064e+00|  6.1901e-09|  7.6965e-01|  5.0000e-01|  5.0000e-01|  5.0000e-01|   -5.651484|   -5.744148|   -6.331770|   -5.981299|   -5.915499|   -8.412463|    2.039814|
|        9984|  6.4064e+00|  6.1900e-09|  7.6965e-01|  5.0000e-01|  5.0000e-01|  5.0000e-01|   -5.652174|   -5.744844|   -6.332216|   -5.981908|   -5.916064|   -8.413561|    2.039817|
|        9985|  6.4064e+00|  6.1900e-09|  7.6965e-01|  5.0000e-01|  5.0000e-01|  5.0000e-01|   -5.652867|   -5.745543|   -6.332661|   -5.982520|   -5.916630|   -8.414672|    2.039821|
|        9986|  6.4065e+00|  6.1900e-09|  7.6965e-01|  5.0000e-01|  5.0000e-01|  5.0000e-01|   -5.653562|   -5.746244|   -6.333106|   -5.983135|   -5.917199|   -8.415795|    2.039824|
|        9987|  6.4064e+00|  6.1899e-09|  7.6965e-01|  5.0000e-01|  5.0000e-01|  5.0000e-01|   -5.654259|   -5.746948|   -6.333550|   -5.983752|   -5.917769|   -8.416932|    2.039828|
|        9988|  6.4064e+00|  6.1899e-09|  7.6965e-01|  5.0000e-01|  5.0000e-01|  5.0000e-01|   -5.654957|   -5.747654|   -6.333994|   -5.984371|   -5.918342|   -8.418081|    2.039832|
|        9989|  6.4064e+00|  6.1899e-09|  7.6965e-01|  5.0000e-01|  5.0000e-01|  5.0000e-01|   -5.655658|   -5.748363|   -6.334436|   -5.984993|   -5.918916|   -8.419243|    2.039836|
|        9990|  6.4064e+00|  6.1898e-09|  7.6965e-01|  5.0000e-01|  5.0000e-01|  5.0000e-01|   -5.656360|   -5.749074|   -6.334879|   -5.985618|   -5.919493|   -8.420419|    2.039840|
|        9991|  6.4064e+00|  6.1898e-09|  7.6965e-01|  5.0000e-01|  5.0000e-01|  5.0000e-01|   -5.657065|   -5.749788|   -6.335320|   -5.986245|   -5.920071|   -8.421608|    2.039845|
|        9992|  6.4064e+00|  6.1897e-09|  7.6965e-01|  5.0000e-01|  5.0000e-01|  5.0000e-01|   -5.657772|   -5.750503|   -6.335761|   -5.986875|   -5.920652|   -8.422810|    2.039849|
|        9993|  6.4064e+00|  6.1897e-09|  7.6965e-01|  5.0000e-01|  5.0000e-01|  5.0000e-01|   -5.658480|   -5.751222|   -6.336199|   -5.987508|   -5.921234|   -8.424026|    2.039854|
|        9994|  6.4063e+00|  6.1897e-09|  7.6965e-01|  5.0000e-01|  5.0000e-01|  5.0000e-01|   -5.659191|   -5.751942|   -6.336637|   -5.988143|   -5.921819|   -8.425256|    2.039859|
|        9995|  6.4063e+00|  6.1896e-09|  7.6965e-01|  5.0000e-01|  5.0000e-01|  5.0000e-01|   -5.659904|   -5.752665|   -6.337075|   -5.988781|   -5.922406|   -8.426500|    2.039864|
|        9996|  6.4063e+00|  6.1896e-09|  7.6965e-01|  5.0000e-01|  5.0000e-01|  5.0000e-01|   -5.660618|   -5.753390|   -6.337513|   -5.989421|   -5.922994|   -8.427757|    2.039869|
|        9997|  6.4063e+00|  6.1896e-09|  7.6965e-01|  5.0000e-01|  5.0000e-01|  5.0000e-01|   -5.661334|   -5.754118|   -6.337949|   -5.990064|   -5.923584|   -8.429028|    2.039874|
|        9998|  6.4063e+00|  6.1895e-09|  7.6965e-01|  5.0000e-01|  5.0000e-01|  5.0000e-01|   -5.662052|   -5.754847|   -6.338386|   -5.990708|   -5.924176|   -8.430314|    2.039880|
|        9999|  6.4063e+00|  6.1895e-09|  7.6965e-01|  5.0000e-01|  5.0000e-01|  5.0000e-01|   -5.662772|   -5.755579|   -6.338821|   -5.991356|   -5.924771|   -8.431613|    2.039886|
|       10000|  6.4063e+00|  6.1895e-09|  7.6965e-01|  5.0000e-01|  5.0000e-01|  5.0000e-01|   -5.663494|   -5.756313|   -6.339255|   -5.992006|   -5.925367|   -8.432927|    2.039892|
|       10001|  6.4063e+00|  6.1894e-09|  7.6965e-01|  5.0000e-01|  5.0000e-01|  5.0000e-01|   -5.664218|   -5.757049|   -6.339689|   -5.992660|   -5.925965|   -8.434255|    2.039898|
|       10002|  6.4062e+00|  6.1894e-09|  7.6965e-01|  5.0000e-01|  5.0000e-01|  5.0000e-01|   -5.664945|   -5.757789|   -6.340123|   -5.993317|   -5.926566|   -8.435598|    2.039904|
|       10003|  6.4062e+00|  6.1894e-09|  7.6965e-01|  5.0000e-01|  5.0000e-01|  5.0000e-01|   -5.665674|   -5.758531|   -6.340556|   -5.993976|   -5.927170|   -8.436955|    2.039910|
|       10004|  6.4062e+00|  6.1893e-09|  7.6965e-01|  5.0000e-01|  5.0000e-01|  5.0000e-01|   -5.666404|   -5.759276|   -6.340988|   -5.994638|   -5.927775|   -8.438327|    2.039917|
|       10005|  6.4062e+00|  6.1893e-09|  7.6965e-01|  5.0000e-01|  5.0000e-01|  5.0000e-01|   -5.667136|   -5.760022|   -6.341419|   -5.995302|   -5.928382|   -8.439713|    2.039923|
|       10006|  6.4062e+00|  6.1893e-09|  7.6965e-01|  5.0000e-01|  5.0000e-01|  5.0000e-01|   -5.667869|   -5.760770|   -6.341848|   -5.995968|   -5.928990|   -8.441114|    2.039930|
|       10007|  6.4062e+00|  6.1892e-09|  7.6965e-01|  5.0000e-01|  5.0000e-01|  5.0000e-01|   -5.668604|   -5.761520|   -6.342277|   -5.996636|   -5.929599|   -8.442530|    2.039937|
|       10008|  6.4062e+00|  6.1892e-09|  7.6965e-01|  5.0000e-01|  5.0000e-01|  5.0000e-01|   -5.669339|   -5.762272|   -6.342704|   -5.997307|   -5.930211|   -8.443961|    2.039945|
|       10009|  6.4062e+00|  6.1892e-09|  7.6965e-01|  5.0000e-01|  5.0000e-01|  5.0000e-01|   -5.670077|   -5.763026|   -6.343130|   -5.997980|   -5.930823|   -8.445407|    2.039952|
|       10010|  6.4062e+00|  6.1892e-09|  7.6965e-01|  5.0000e-01|  5.0000e-01|  5.0000e-01|   -5.670815|   -5.763782|   -6.343555|   -5.998655|   -5.931438|   -8.446867|    2.039960|
|       10011|  6.4062e+00|  6.1891e-09|  7.6965e-01|  5.0000e-01|  5.0000e-01|  5.0000e-01|   -5.671555|   -5.764540|   -6.343979|   -5.999333|   -5.932054|   -8.448343|    2.039967|
|       10012|  6.4062e+00|  6.1891e-09|  7.6965e-01|  5.0000e-01|  5.0000e-01|  5.0000e-01|   -5.672297|   -5.765300|   -6.344402|   -6.000012|   -5.932672|   -8.449833|    2.039975|
|       10013|  6.4062e+00|  6.1891e-09|  7.6965e-01|  5.0000e-01|  5.0000e-01|  5.0000e-01|   -5.673040|   -5.766062|   -6.344824|   -6.000695|   -5.933291|   -8.451339|    2.039983|
|       10014|  6.4061e+00|  6.1890e-09|  7.6965e-01|  5.0000e-01|  5.0000e-01|  5.0000e-01|   -5.673783|   -5.766826|   -6.345244|   -6.001379|   -5.933912|   -8.452860|    2.039991|
|       10015|  6.4061e+00|  6.1890e-09|  7.6965e-01|  5.0000e-01|  5.0000e-01|  5.0000e-01|   -5.674529|   -5.767592|   -6.345662|   -6.002065|   -5.934534|   -8.454395|    2.040000|
|       10016|  6.4061e+00|  6.1890e-09|  7.6965e-01|  5.0000e-01|  5.0000e-01|  5.0000e-01|   -5.675275|   -5.768359|   -6.346080|   -6.002754|   -5.935157|   -8.455946|    2.040008|
|       10017|  6.4061e+00|  6.1890e-09|  7.6965e-01|  5.0000e-01|  5.0000e-01|  5.0000e-01|   -5.676022|   -5.769128|   -6.346495|   -6.003445|   -5.935782|   -8.457512|    2.040017|
|       10018|  6.4061e+00|  6.1889e-09|  7.6965e-01|  5.0000e-01|  5.0000e-01|  5.0000e-01|   -5.676770|   -5.769899|   -6.346909|   -6.004137|   -5.936408|   -8.459093|    2.040026|
|       10019|  6.4061e+00|  6.1889e-09|  7.6965e-01|  5.0000e-01|  5.0000e-01|  5.0000e-01|   -5.677519|   -5.770672|   -6.347323|   -6.004832|   -5.937036|   -8.460689|    2.040035|
|       10020|  6.4061e+00|  6.1889e-09|  7.6965e-01|  5.0000e-01|  5.0000e-01|  5.0000e-01|   -5.678268|   -5.771446|   -6.347734|   -6.005529|   -5.937665|   -8.462299|    2.040044|
|       10021|  6.4061e+00|  6.1889e-09|  7.6965e-01|  5.0000e-01|  5.0000e-01|  5.0000e-01|   -5.679019|   -5.772222|   -6.348145|   -6.006228|   -5.938294|   -8.463925|    2.040053|
|       10022|  6.4061e+00|  6.1888e-09|  7.6965e-01|  5.0000e-01|  5.0000e-01|  5.0000e-01|   -5.679770|   -5.772999|   -6.348553|   -6.006929|   -5.938925|   -8.465566|    2.040063|
|       10023|  6.4061e+00|  6.1888e-09|  7.6965e-01|  5.0000e-01|  5.0000e-01|  5.0000e-01|   -5.680522|   -5.773778|   -6.348961|   -6.007631|   -5.939558|   -8.467221|    2.040072|
|       10024|  6.4061e+00|  6.1888e-09|  7.6965e-01|  5.0000e-01|  5.0000e-01|  5.0000e-01|   -5.681275|   -5.774559|   -6.349367|   -6.008336|   -5.940191|   -8.468892|    2.040082|
|       10025|  6.4061e+00|  6.1888e-09|  7.6965e-01|  5.0000e-01|  5.0000e-01|  5.0000e-01|   -5.682026|   -5.775339|   -6.349770|   -6.009042|   -5.940824|   -8.470577|    2.040092|
|       10026|  6.4061e+00|  6.1887e-09|  7.6965e-01|  5.0000e-01|  5.0000e-01|  5.0000e-01|   -5.682777|   -5.776120|   -6.350172|   -6.009749|   -5.941458|   -8.472276|    2.040102|
|       10027|  6.4061e+00|  6.1887e-09|  7.6965e-01|  5.0000e-01|  5.0000e-01|  5.0000e-01|   -5.683529|   -5.776902|   -6.350572|   -6.010458|   -5.942092|   -8.473991|    2.040112|
|       10028|  6.4060e+00|  6.1887e-09|  7.6965e-01|  5.0000e-01|  5.0000e-01|  5.0000e-01|   -5.684281|   -5.777686|   -6.350971|   -6.011168|   -5.942728|   -8.475719|    2.040123|
|       10029|  6.4060e+00|  6.1887e-09|  7.6965e-01|  5.0000e-01|  5.0000e-01|  5.0000e-01|   -5.685033|   -5.778472|   -6.351370|   -6.011881|   -5.943366|   -8.477462|    2.040133|
|       10030|  6.4060e+00|  6.1886e-09|  7.6965e-01|  5.0000e-01|  5.0000e-01|  5.0000e-01|   -5.685787|   -5.779259|   -6.351767|   -6.012596|   -5.944004|   -8.479219|    2.040144|

scontrol show job 1072100
JobId=1072100 JobName=m6_fine
   UserId=anthonyy(3152141) GroupId=anthonyy(3152141) MCS_label=N/A
   Priority=814041 Nice=0 Account=rrg-jphickey QOS=normal
   JobState=COMPLETING Reason=TimeLimit Dependency=(null)
   Requeue=0 Restarts=0 BatchFlag=1 Reboot=0 ExitCode=0:15
   RunTime=18:00:09 TimeLimit=18:00:00 TimeMin=N/A
   SubmitTime=2026-02-27T02:30:25 EligibleTime=2026-02-27T02:30:25
   AccrueTime=2026-02-27T02:30:25
   StartTime=2026-02-27T02:30:26 EndTime=2026-02-27T20:30:35 Deadline=N/A
   SuspendTime=None SecsPreSuspend=0 LastSchedEval=2026-02-27T02:30:26 Scheduler=Main
   Partition=compute AllocNode:Sid=tri-login02:7576
   ReqNodeList=(null) ExcNodeList=(null)
   NodeList=tri[0442,0550]
   BatchHost=tri0442
   NumNodes=2 NumCPUs=384 NumTasks=128 CPUs/Task=1 ReqB:S:C:T=0:0:*:*
   ReqTRES=cpu=128,mem=1534000M,node=2,billing=128
   AllocTRES=cpu=384,mem=1534000M,node=2,billing=384
   Socks/Node=* NtasksPerN:B:S:C=64:0:*:* CoreSpec=*
   MinCPUsNode=64 MinMemoryNode=767000M MinTmpDiskNode=0
   Features=(null) DelayBoot=00:00:00
   OverSubscribe=NO Contiguous=0 Licenses=(null) Network=(null)
   Command=/scratch/anthonyy/reentry/orion/cases/m6_aoa24/run.sh
   WorkDir=/scratch/anthonyy/reentry/orion/cases/m6_aoa24
   Comment=/opt/slurm/bin/sbatch --export=NONE --get-user-env=L run.sh 
   StdErr=/scratch/anthonyy/reentry/orion/cases/m6_aoa24/orion_1072100.err
   StdIn=/dev/null
   StdOut=/scratch/anthonyy/reentry/orion/cases/m6_aoa24/orion_1072100.out
   TresPerTask=cpu=1
   

sacct -j 1072100
JobID           JobName    Account    Elapsed  MaxVMSize     MaxRSS  SystemCPU    UserCPU ExitCode 
------------ ---------- ---------- ---------- ---------- ---------- ---------- ---------- -------- 
1072100         m6_fine rrg-jphic+   18:00:09                         08:52:17 94-17:26:+      0:0 
1072100.bat+      batch rrg-jphic+   18:00:10          0      9976K  00:00.145  00:00.603     0:15 
1072100.ext+     extern rrg-jphic+   18:00:14          0          0  00:00.001   00:00:00      0:0 
1072100.0       SU2_CFD rrg-jphic+   18:00:07          0   7729284K   08:52:16 94-17:26:+     0:15 

