Nodes: tri[0045-0046]
Tasks: 128
NPN:   64

-------------------------------------------------------------------------
|    ___ _   _ ___                                                      |
|   / __| | | |_  )   Release 7.5.1 "Blackbird"                         |
|   \__ \ |_| |/ /                                                      |
|   |___/\___//___|   Suite (Computational Fluid Dynamics Code)         |
|                                                                       |
-------------------------------------------------------------------------
| SU2 Project Website: https://su2code.github.io                        |
|                                                                       |
| The SU2 Project is maintained by the SU2 Foundation                   |
| (http://su2foundation.org)                                            |
-------------------------------------------------------------------------
| Copyright 2012-2023, SU2 Contributors                                 |
|                                                                       |
| SU2 is free software; you can redistribute it and/or                  |
| modify it under the terms of the GNU Lesser General Public            |
| License as published by the Free Software Foundation; either          |
| version 2.1 of the License, or (at your option) any later version.    |
|                                                                       |
| SU2 is distributed in the hope that it will be useful,                |
| but WITHOUT ANY WARRANTY; without even the implied warranty of        |
| MERCHANTABILITY or FITNESS FOR A PARTICULAR PURPOSE. See the GNU      |
| Lesser General Public License for more details.                       |
|                                                                       |
| You should have received a copy of the GNU Lesser General Public      |
| License along with SU2. If not, see <http://www.gnu.org/licenses/>.   |
-------------------------------------------------------------------------

Parsing config file for zone 0

----------------- Physical Case Definition ( Zone 0 ) -------------------
Compressible RANS equations.
Turbulence model: Spalart-Allmaras-noft2
Hybrid RANS/LES: No Hybrid RANS/LES
Mach number: 6.
Angle of attack (AoA): 24 deg, and angle of sideslip (AoS): 0 deg.
Reynolds number: 6.86229e+08. Reference length 5.
Reading and writing binary SU2 native restart files.
Read flow solution from: restart_flow.dat.
Non-Dimensional simulation (V=1.0, Rho=1.0, T=1.0 at the farfield).
The reference area will be computed using y(2D) or z(3D) projection.
The semi-span will be computed using the max y(3D) value.
The reference length is 0.64607 m.
Reference origin for moment evaluation is (0.25, 0, 0).
Surface(s) where the force coefficients are evaluated: ORION_SURFACE.

Input mesh file name: fine.su2

--------------- Space Numerical Integration ( Zone 0 ) ------------------
Jameson-Schmidt-Turkel scheme (2nd order in space) for the flow inviscid terms.
JST viscous coefficients (2nd & 4th): 0.5, 0.02.
The method includes a grid stretching correction (p = 0.3).
Scalar upwind solver for the turbulence model.
First order integration in space.
Average of gradients with correction (viscous flow terms).
Average of gradients with correction (viscous turbulence terms).
Gradient for upwind reconstruction: Green-Gauss.
Gradient for viscous and source terms: Green-Gauss.

--------------- Time Numerical Integration  ( Zone 0 ) ------------------
Local time stepping (steady state simulation).
Euler implicit method for the flow equations.
FGMRES is used for solving the linear system.
Using a ILU(0) preconditioning.
Convergence criteria of the linear solver: 1e-06.
Max number of linear iterations: 100.
CFL adaptation. Factor down: 0.5, factor up: 1.1,
                lower limit: 0.05, upper limit: 0.5,
                acceptable linear residual: 0.001.
Courant-Friedrichs-Lewy number:     0.03
Euler implicit time integration for the turbulence model.

------------------ Convergence Criteria  ( Zone 0 ) ---------------------
Maximum number of solver subiterations: 999999.
Begin convergence monitoring at iteration 5.
Residual minimum value: 1e-8.
Cauchy series min. value: 1e-10.
Number of Cauchy elements: 100.
Begin windowed time average at iteration 0.

-------------------- Output Information ( Zone 0 ) ----------------------
File writing frequency: 
+------------------------------------+
|                     File| Frequency|
+------------------------------------+
|                  RESTART|       150|
|                 PARAVIEW|       150|
|         SURFACE_PARAVIEW|       150|
+------------------------------------+
Writing the convergence history file every 1 inner iterations.
Writing the screen convergence history every 1 inner iterations.
The tabular file format is CSV (.csv).
Convergence history file name: history.
Forces breakdown file name: forces_breakdown.dat.
Surface file name: surface_flow.
Volume file name: flow.
Restart file name: restart_flow.

------------- Config File Boundary Information ( Zone 0 ) ---------------
+-----------------------------------------------------------------------+
|                        Marker Type|                        Marker Name|
+-----------------------------------------------------------------------+
|                          Far-field|                           FARFIELD|
+-----------------------------------------------------------------------+
|                     Heat flux wall|                      ORION_SURFACE|
+-----------------------------------------------------------------------+

-------------------- Output Preprocessing ( Zone 0 ) --------------------

WARNING: SURFACE_PRESSURE_DROP can only be computed for at least 2 surfaces (outlet, inlet, ...)

Screen output fields: INNER_ITER, WALL_TIME, MIN_DELTA_TIME, MAX_DELTA_TIME, MIN_CFL, MAX_CFL, AVG_CFL, RMS_DENSITY, RMS_MOMENTUM-X, RMS_MOMENTUM-Y, RMS_MOMENTUM-Z, RMS_ENERGY, RMS_NU_TILDE, DRAG
History output group(s): ITER, RMS_RES
Convergence field(s): RMS_DENSITY
Warning: No (valid) fields chosen for time convergence monitoring. Time convergence monitoring inactive.
Volume output fields: MACH, PRESSURE, TEMPERATURE, DENSITY, HEAT_FLUX, Y_PLUS, COORDINATES, SOLUTION

------------------- Geometry Preprocessing ( Zone 0 ) -------------------
Three dimensional problem.
62211324 grid points before partitioning.
190879888 volume elements before partitioning.
2 surface markers.
4104 boundary elements in index 0 (Marker = FARFIELD).
1824836 boundary elements in index 1 (Marker = ORION_SURFACE).
Executing the partitioning functions.
Building the graph adjacency structure.
Calling ParMETIS... graph partitioning complete (4959327 edge cuts).
Distributing ParMETIS coloring.
Rebalancing vertices.
Rebalancing volume element connectivity.
Rebalancing markers and surface elements.
66952290 vertices including ghost points. 
197997438 interior elements including halo cells. 
103171259 tetrahedra.
94500655 prisms.
325524 pyramids.
Establishing MPI communication patterns.
Setting point connectivity.
Renumbering points (Reverse Cuthill McKee Ordering).
Recomputing point connectivity.
Setting element connectivity.
Checking the numerical grid orientation.
All volume elements are correctly orientend.
All surface elements are correctly orientend.
Identifying edges and vertices.
Setting the control volume structure.
Volume of the computational grid: 535693.
Searching for the closest normal neighbors to the surfaces.
Storing a mapping from global to local point index.
Compute the surface curvature.
Max K: 132.896. Mean K: 3.9104. Standard deviation K: 7.49569.
Checking for periodicity.
Computing mesh quality statistics for the dual control volumes.
+--------------------------------------------------------------+
|           Mesh Quality Metric|        Minimum|        Maximum|
+--------------------------------------------------------------+
|    Orthogonality Angle (deg.)|        53.0661|             90|
|     CV Face Area Aspect Ratio|        1.01143|        75298.5|
|           CV Sub-Volume Ratio|        1.00029|        45.0258|
+--------------------------------------------------------------+
Finding max control volume width.
Communicating number of neighbors.
Reference area = 11.531 m^2.
Semi-span length = 2.49999 m.
Wetted area = 57.9072 m^2.
Area projection in the x-plane = 19.6343 m^2, y-plane = 11.531 m^2, z-plane = 11.531 m^2.
Max. coordinate in the x-direction = 2.575 m, y-direction = 2.49999 m, z-direction = 2.49999 m.
Min. coordinate in the x-direction = -0.71 m, y-direction = -2.49999 m, z-direction = -2.5 m.
Computing wall distances.

-------------------- Solver Preprocessing ( Zone 0 ) --------------------
Viscous flow: Computing pressure using the ideal gas law
based on the free-stream temperature and a density computed
from the Reynolds number.
Force coefficients computed using free-stream values.

-- Models:
+------------------------------------------------------------------------------+
|          Viscosity Model|        Conductivity Model|              Fluid Model|
+------------------------------------------------------------------------------+
|               SUTHERLAND|          CONSTANT_PRANDTL|             STANDARD_AIR|
+------------------------------------------------------------------------------+
-- Fluid properties:
+------------------------------------------------------------------------------+
|                  Name|    Dim. value|    Ref. value|      Unit|Non-dim. value|
+------------------------------------------------------------------------------+
|        Ref. Viscosity|     1.716e-05|       2455.73|   N.s/m^2|   6.98773e-09|
|      Sutherland Temp.|        273.15|        288.15|         K|      0.947944|
|     Sutherland Const.|         110.4|        288.15|         K|      0.383134|
+------------------------------------------------------------------------------+
|        Prandtl (Lam.)|             -|             -|         -|          0.72|
|       Prandtl (Turb.)|             -|             -|         -|           0.9|
+------------------------------------------------------------------------------+
|          Gas Constant|       287.058|       14467.7|  N.m/kg.K|     0.0198413|
|      Spec. Heat Ratio|             -|             -|         -|           1.4|
+------------------------------------------------------------------------------+
-- Initial and free-stream conditions:
+------------------------------------------------------------------------------+
|                  Name|    Dim. value|    Ref. value|      Unit|Non-dim. value|
+------------------------------------------------------------------------------+
|       Static Pressure|       99485.6|   5.01407e+06|        Pa|     0.0198413|
|               Density|       1.20274|       1.20274|    kg/m^3|             1|
|           Temperature|        288.15|        288.15|         K|             1|
|          Total Energy|   2.29123e+06|   4.16887e+06|   m^2/s^2|      0.549603|
|            Velocity-X|       1865.26|       2041.78|       m/s|      0.913545|
|            Velocity-Y|             0|       2041.78|       m/s|             0|
|            Velocity-Z|       830.468|       2041.78|       m/s|      0.406737|
|    Velocity Magnitude|       2041.78|       2041.78|       m/s|             1|
+------------------------------------------------------------------------------+
|             Viscosity|    1.7893e-05|       2455.73|   N.s/m^2|    7.2862e-09|
|          Conductivity|             -|   3.55289e+07|   W/m^2.K|             -|
|     Turb. Kin. Energy|       15633.3|   4.16887e+06|   m^2/s^2|       0.00375|
|     Spec. Dissipation|   1.05085e+08|       2041.78|       1/s|       51467.1|
+------------------------------------------------------------------------------+
|           Mach Number|             -|             -|         -|             6|
|       Reynolds Number|             -|             -|         -|   6.86229e+08|
+------------------------------------------------------------------------------+
Initialize Jacobian structure (Navier-Stokes). MG level: 0.
Initialize Jacobian structure (SA model).

------------------- Numerics Preprocessing ( Zone 0 ) -------------------

----------------- Integration Preprocessing ( Zone 0 ) ------------------

------------------- Iteration Preprocessing ( Zone 0 ) ------------------
Euler/Navier-Stokes/RANS fluid iteration.

------------------------------ Begin Solver -----------------------------

Simulation Run using the Single-zone Driver
WARNING: SU2 was not compiled for an AVX-capable architecture. Performance could be better,
         see https://su2code.github.io/docs_v7/Build-SU2-Linux-MacOS/#compiler-optimizations
+-------------------------------------------------------------------------------------------------------------------------------------------------------------------------------------+
|  Inner_Iter|   Time(sec)|      Min DT|      Max DT|     Min CFL|     Max CFL|     Avg CFL|    rms[Rho]|   rms[RhoU]|   rms[RhoV]|   rms[RhoW]|   rms[RhoE]|     rms[nu]|          CD|
+-------------------------------------------------------------------------------------------------------------------------------------------------------------------------------------+
|           0|  1.5179e+01|  3.7167e-10|  4.6179e-02|  5.0000e-02|  5.0000e-02|  5.0000e-02|   -5.605496|   -5.699284|   -6.296147|   -5.942675|   -5.878776|   -8.350361|    2.040105|
|           1|  1.0045e+01|  6.1946e-10|  7.6965e-02|  5.5000e-02|  5.5000e-02|  5.5000e-02|   -5.605556|   -5.699334|   -6.296227|   -5.942736|   -5.878851|   -8.350401|    2.040104|
|           2|  8.2417e+00|  6.8140e-10|  8.4662e-02|  6.0500e-02|  6.0500e-02|  6.0500e-02|   -5.605652|   -5.699416|   -6.296356|   -5.942833|   -5.878971|   -8.350461|    2.040103|
|           3|  7.3486e+00|  7.4954e-10|  9.3128e-02|  6.6550e-02|  6.6550e-02|  6.6550e-02|   -5.605756|   -5.699506|   -6.296496|   -5.942939|   -5.879102|   -8.350528|    2.040102|
|           4|  6.8178e+00|  8.2449e-10|  1.0244e-01|  7.3205e-02|  7.3205e-02|  7.3205e-02|   -5.605871|   -5.699604|   -6.296647|   -5.943055|   -5.879244|   -8.350601|    2.040101|
|           5|  6.4581e+00|  9.0694e-10|  1.1268e-01|  8.0526e-02|  8.0526e-02|  8.0526e-02|   -5.605995|   -5.699711|   -6.296809|   -5.943181|   -5.879399|   -8.350682|    2.040099|
|           6|  6.2039e+00|  9.9763e-10|  1.2395e-01|  8.8578e-02|  8.8578e-02|  8.8578e-02|   -5.606131|   -5.699829|   -6.296984|   -5.943317|   -5.879566|   -8.350770|    2.040098|
|           7|  6.0064e+00|  1.0974e-09|  1.3635e-01|  9.7436e-02|  9.7436e-02|  9.7436e-02|   -5.606279|   -5.699957|   -6.297173|   -5.943464|   -5.879748|   -8.350868|    2.040096|
|           8|  5.8536e+00|  1.2071e-09|  1.4998e-01|  1.0718e-01|  1.0718e-01|  1.0718e-01|   -5.606439|   -5.700098|   -6.297374|   -5.943624|   -5.879945|   -8.350975|    2.040094|
|           9|  5.7263e+00|  1.3278e-09|  1.6498e-01|  1.1790e-01|  1.1790e-01|  1.1790e-01|   -5.606614|   -5.700251|   -6.297590|   -5.943797|   -5.880157|   -8.351093|    2.040092|
|          10|  5.6277e+00|  1.4606e-09|  1.8148e-01|  1.2969e-01|  1.2969e-01|  1.2969e-01|   -5.606803|   -5.700418|   -6.297820|   -5.943983|   -5.880386|   -8.351223|    2.040090|
|          11|  5.5474e+00|  1.6067e-09|  1.9963e-01|  1.4266e-01|  1.4266e-01|  1.4266e-01|   -5.607008|   -5.700601|   -6.298064|   -5.944183|   -5.880632|   -8.351365|    2.040087|
|          12|  5.5154e+00|  1.7673e-09|  2.1959e-01|  1.5692e-01|  1.5692e-01|  1.5692e-01|   -5.607229|   -5.700799|   -6.298322|   -5.944398|   -5.880897|   -8.351522|    2.040084|
|          13|  5.4884e+00|  1.9441e-09|  2.4155e-01|  1.7261e-01|  1.7261e-01|  1.7261e-01|   -5.607468|   -5.701015|   -6.298595|   -5.944629|   -5.881180|   -8.351695|    2.040081|
|          14|  5.4696e+00|  2.1385e-09|  2.6570e-01|  1.8987e-01|  1.8987e-01|  1.8987e-01|   -5.607726|   -5.701249|   -6.298881|   -5.944875|   -5.881482|   -8.351885|    2.040078|
|          15|  5.4537e+00|  2.3523e-09|  2.9228e-01|  2.0886e-01|  2.0886e-01|  2.0886e-01|   -5.608003|   -5.701502|   -6.299179|   -5.945137|   -5.881804|   -8.352094|    2.040074|
|          16|  5.4413e+00|  2.5875e-09|  3.2150e-01|  2.2975e-01|  2.2975e-01|  2.2975e-01|   -5.608300|   -5.701776|   -6.299489|   -5.945414|   -5.882144|   -8.352324|    2.040070|
|          17|  5.4226e+00|  2.8463e-09|  3.5365e-01|  2.5272e-01|  2.5272e-01|  2.5272e-01|   -5.608618|   -5.702071|   -6.299808|   -5.945708|   -5.882503|   -8.352576|    2.040066|
|          18|  5.4065e+00|  3.1309e-09|  3.8902e-01|  2.7800e-01|  2.7800e-01|  2.7800e-01|   -5.608956|   -5.702389|   -6.300135|   -5.946017|   -5.882879|   -8.352855|    2.040061|
|          19|  5.3996e+00|  3.4439e-09|  4.2792e-01|  3.0580e-01|  3.0580e-01|  3.0580e-01|   -5.609315|   -5.702729|   -6.300466|   -5.946339|   -5.883270|   -8.353161|    2.040056|
|          20|  5.3916e+00|  3.7883e-09|  4.7071e-01|  3.3637e-01|  3.3637e-01|  3.3637e-01|   -5.609695|   -5.703091|   -6.300798|   -5.946674|   -5.883674|   -8.353498|    2.040050|
|          21|  5.4062e+00|  4.1671e-09|  5.1778e-01|  3.7001e-01|  3.7001e-01|  3.7001e-01|   -5.610093|   -5.703475|   -6.301127|   -5.947018|   -5.884086|   -8.353869|    2.040044|
|          22|  5.4200e+00|  4.5838e-09|  5.6956e-01|  4.0701e-01|  4.0701e-01|  4.0701e-01|   -5.610507|   -5.703879|   -6.301447|   -5.947367|   -5.884500|   -8.354278|    2.040038|
|          23|  5.4301e+00|  5.0421e-09|  6.2652e-01|  4.4772e-01|  4.4772e-01|  4.4772e-01|   -5.610933|   -5.704298|   -6.301748|   -5.947715|   -5.884907|   -8.354728|    2.040031|
|          24|  5.4391e+00|  5.5463e-09|  6.8917e-01|  4.9249e-01|  4.9249e-01|  4.9249e-01|   -5.611367|   -5.704731|   -6.302029|   -5.948057|   -5.885299|   -8.355224|    2.040023|
|          25|  5.4476e+00|  6.1009e-09|  7.5809e-01|  5.0000e-01|  5.0000e-01|  5.0000e-01|   -5.611805|   -5.705172|   -6.302280|   -5.948388|   -5.885665|   -8.355771|    2.040014|
|          26|  5.4591e+00|  6.1939e-09|  7.6965e-01|  5.0000e-01|  5.0000e-01|  5.0000e-01|   -5.612238|   -5.705613|   -6.302494|   -5.948696|   -5.885988|   -8.356366|    2.040006|
|          27|  5.4659e+00|  6.1938e-09|  7.6965e-01|  5.0000e-01|  5.0000e-01|  5.0000e-01|   -5.612666|   -5.706047|   -6.302712|   -5.948998|   -5.886295|   -8.356970|    2.039998|
|          28|  5.4746e+00|  6.1937e-09|  7.6965e-01|  5.0000e-01|  5.0000e-01|  5.0000e-01|   -5.613091|   -5.706474|   -6.302945|   -5.949300|   -5.886594|   -8.357575|    2.039989|
|          29|  5.4823e+00|  6.1937e-09|  7.6965e-01|  5.0000e-01|  5.0000e-01|  5.0000e-01|   -5.613512|   -5.706894|   -6.303192|   -5.949601|   -5.886885|   -8.358182|    2.039982|
|          30|  5.4879e+00|  6.1936e-09|  7.6965e-01|  5.0000e-01|  5.0000e-01|  5.0000e-01|   -5.613930|   -5.707308|   -6.303451|   -5.949901|   -5.887170|   -8.358790|    2.039974|
|          31|  5.4946e+00|  6.1935e-09|  7.6965e-01|  5.0000e-01|  5.0000e-01|  5.0000e-01|   -5.614345|   -5.707716|   -6.303724|   -5.950201|   -5.887447|   -8.359400|    2.039966|
|          32|  5.5031e+00|  6.1935e-09|  7.6965e-01|  5.0000e-01|  5.0000e-01|  5.0000e-01|   -5.614758|   -5.708119|   -6.304008|   -5.950502|   -5.887719|   -8.360013|    2.039959|
|          33|  5.5099e+00|  6.1934e-09|  7.6965e-01|  5.0000e-01|  5.0000e-01|  5.0000e-01|   -5.615169|   -5.708517|   -6.304303|   -5.950802|   -5.887987|   -8.360627|    2.039951|
|          34|  5.5154e+00|  6.1934e-09|  7.6965e-01|  5.0000e-01|  5.0000e-01|  5.0000e-01|   -5.615578|   -5.708912|   -6.304610|   -5.951104|   -5.888250|   -8.361243|    2.039944|
|          35|  5.5203e+00|  6.1933e-09|  7.6965e-01|  5.0000e-01|  5.0000e-01|  5.0000e-01|   -5.615987|   -5.709305|   -6.304928|   -5.951408|   -5.888511|   -8.361861|    2.039937|
|          36|  5.5228e+00|  6.1932e-09|  7.6965e-01|  5.0000e-01|  5.0000e-01|  5.0000e-01|   -5.616395|   -5.709695|   -6.305256|   -5.951714|   -5.888770|   -8.362482|    2.039930|
|          37|  5.5267e+00|  6.1932e-09|  7.6965e-01|  5.0000e-01|  5.0000e-01|  5.0000e-01|   -5.616804|   -5.710085|   -6.305593|   -5.952022|   -5.889027|   -8.363106|    2.039924|
|          38|  5.5315e+00|  6.1931e-09|  7.6965e-01|  5.0000e-01|  5.0000e-01|  5.0000e-01|   -5.617214|   -5.710475|   -6.305939|   -5.952334|   -5.889285|   -8.363732|    2.039917|
|          39|  5.5350e+00|  6.1930e-09|  7.6965e-01|  5.0000e-01|  5.0000e-01|  5.0000e-01|   -5.617626|   -5.710865|   -6.306294|   -5.952649|   -5.889544|   -8.364361|    2.039911|
|          40|  5.5383e+00|  6.1930e-09|  7.6965e-01|  5.0000e-01|  5.0000e-01|  5.0000e-01|   -5.618040|   -5.711256|   -6.306657|   -5.952969|   -5.889805|   -8.364993|    2.039905|
|          41|  5.5417e+00|  6.1929e-09|  7.6965e-01|  5.0000e-01|  5.0000e-01|  5.0000e-01|   -5.618456|   -5.711650|   -6.307027|   -5.953293|   -5.890068|   -8.365628|    2.039898|
|          42|  5.5452e+00|  6.1929e-09|  7.6965e-01|  5.0000e-01|  5.0000e-01|  5.0000e-01|   -5.618876|   -5.712047|   -6.307404|   -5.953621|   -5.890334|   -8.366267|    2.039893|
|          43|  5.5464e+00|  6.1928e-09|  7.6965e-01|  5.0000e-01|  5.0000e-01|  5.0000e-01|   -5.619299|   -5.712447|   -6.307788|   -5.953956|   -5.890605|   -8.366909|    2.039887|
|          44|  5.5494e+00|  6.1927e-09|  7.6965e-01|  5.0000e-01|  5.0000e-01|  5.0000e-01|   -5.619727|   -5.712852|   -6.308179|   -5.954296|   -5.890881|   -8.367555|    2.039881|
|          45|  5.5536e+00|  6.1927e-09|  7.6965e-01|  5.0000e-01|  5.0000e-01|  5.0000e-01|   -5.620160|   -5.713261|   -6.308576|   -5.954642|   -5.891163|   -8.368204|    2.039876|
|          46|  5.5570e+00|  6.1926e-09|  7.6965e-01|  5.0000e-01|  5.0000e-01|  5.0000e-01|   -5.620598|   -5.713676|   -6.308978|   -5.954995|   -5.891450|   -8.368857|    2.039871|
|          47|  5.5583e+00|  6.1926e-09|  7.6965e-01|  5.0000e-01|  5.0000e-01|  5.0000e-01|   -5.621041|   -5.714097|   -6.309385|   -5.955354|   -5.891744|   -8.369515|    2.039865|
|          48|  5.5581e+00|  6.1925e-09|  7.6965e-01|  5.0000e-01|  5.0000e-01|  5.0000e-01|   -5.621490|   -5.714524|   -6.309796|   -5.955720|   -5.892045|   -8.370176|    2.039860|
|          49|  5.5596e+00|  6.1924e-09|  7.6965e-01|  5.0000e-01|  5.0000e-01|  5.0000e-01|   -5.621945|   -5.714957|   -6.310212|   -5.956092|   -5.892354|   -8.370842|    2.039856|
|          50|  5.5609e+00|  6.1924e-09|  7.6965e-01|  5.0000e-01|  5.0000e-01|  5.0000e-01|   -5.622406|   -5.715397|   -6.310631|   -5.956472|   -5.892670|   -8.371513|    2.039851|
|          51|  5.5626e+00|  6.1923e-09|  7.6965e-01|  5.0000e-01|  5.0000e-01|  5.0000e-01|   -5.622874|   -5.715844|   -6.311054|   -5.956858|   -5.892994|   -8.372188|    2.039847|
|          52|  5.5655e+00|  6.1923e-09|  7.6965e-01|  5.0000e-01|  5.0000e-01|  5.0000e-01|   -5.623348|   -5.716299|   -6.311480|   -5.957252|   -5.893326|   -8.372868|    2.039842|
|          53|  5.5674e+00|  6.1922e-09|  7.6965e-01|  5.0000e-01|  5.0000e-01|  5.0000e-01|   -5.623829|   -5.716761|   -6.311909|   -5.957653|   -5.893667|   -8.373553|    2.039838|
|          54|  5.5703e+00|  6.1922e-09|  7.6965e-01|  5.0000e-01|  5.0000e-01|  5.0000e-01|   -5.624317|   -5.717231|   -6.312341|   -5.958061|   -5.894016|   -8.374243|    2.039834|
|          55|  5.5728e+00|  6.1921e-09|  7.6965e-01|  5.0000e-01|  5.0000e-01|  5.0000e-01|   -5.624813|   -5.717709|   -6.312776|   -5.958476|   -5.894373|   -8.374939|    2.039830|
|          56|  5.5725e+00|  6.1920e-09|  7.6965e-01|  5.0000e-01|  5.0000e-01|  5.0000e-01|   -5.625315|   -5.718194|   -6.313212|   -5.958898|   -5.894739|   -8.375640|    2.039826|
|          57|  5.5730e+00|  6.1920e-09|  7.6965e-01|  5.0000e-01|  5.0000e-01|  5.0000e-01|   -5.625824|   -5.718687|   -6.313651|   -5.959328|   -5.895113|   -8.376347|    2.039823|
|          58|  5.5749e+00|  6.1919e-09|  7.6965e-01|  5.0000e-01|  5.0000e-01|  5.0000e-01|   -5.626340|   -5.719187|   -6.314092|   -5.959764|   -5.895496|   -8.377060|    2.039819|
|          59|  5.5776e+00|  6.1919e-09|  7.6965e-01|  5.0000e-01|  5.0000e-01|  5.0000e-01|   -5.626863|   -5.719695|   -6.314534|   -5.960207|   -5.895887|   -8.377779|    2.039816|
|          60|  5.5814e+00|  6.1918e-09|  7.6965e-01|  5.0000e-01|  5.0000e-01|  5.0000e-01|   -5.627394|   -5.720211|   -6.314979|   -5.960656|   -5.896286|   -8.378504|    2.039813|
|          61|  5.5832e+00|  6.1918e-09|  7.6965e-01|  5.0000e-01|  5.0000e-01|  5.0000e-01|   -5.627931|   -5.720734|   -6.315425|   -5.961112|   -5.896693|   -8.379236|    2.039810|
|          62|  5.5836e+00|  6.1917e-09|  7.6965e-01|  5.0000e-01|  5.0000e-01|  5.0000e-01|   -5.628475|   -5.721265|   -6.315872|   -5.961575|   -5.897108|   -8.379974|    2.039807|
|          63|  5.5838e+00|  6.1917e-09|  7.6965e-01|  5.0000e-01|  5.0000e-01|  5.0000e-01|   -5.629025|   -5.721802|   -6.316320|   -5.962043|   -5.897530|   -8.380718|    2.039805|
|          64|  5.5852e+00|  6.1916e-09|  7.6965e-01|  5.0000e-01|  5.0000e-01|  5.0000e-01|   -5.629581|   -5.722346|   -6.316769|   -5.962517|   -5.897958|   -8.381470|    2.039802|
|          65|  5.5869e+00|  6.1916e-09|  7.6965e-01|  5.0000e-01|  5.0000e-01|  5.0000e-01|   -5.630144|   -5.722897|   -6.317218|   -5.962997|   -5.898394|   -8.382229|    2.039800|
|          66|  5.5897e+00|  6.1915e-09|  7.6965e-01|  5.0000e-01|  5.0000e-01|  5.0000e-01|   -5.630713|   -5.723454|   -6.317668|   -5.963481|   -5.898836|   -8.382995|    2.039798|
|          67|  5.5923e+00|  6.1915e-09|  7.6965e-01|  5.0000e-01|  5.0000e-01|  5.0000e-01|   -5.631287|   -5.724018|   -6.318118|   -5.963971|   -5.899285|   -8.383768|    2.039796|
|          68|  5.5944e+00|  6.1914e-09|  7.6965e-01|  5.0000e-01|  5.0000e-01|  5.0000e-01|   -5.631868|   -5.724588|   -6.318571|   -5.964468|   -5.899741|   -8.384549|    2.039794|
|          69|  5.5951e+00|  6.1914e-09|  7.6965e-01|  5.0000e-01|  5.0000e-01|  5.0000e-01|   -5.632455|   -5.725165|   -6.319024|   -5.964969|   -5.900202|   -8.385338|    2.039792|
|          70|  5.5959e+00|  6.1913e-09|  7.6965e-01|  5.0000e-01|  5.0000e-01|  5.0000e-01|   -5.633047|   -5.725747|   -6.319477|   -5.965474|   -5.900669|   -8.386134|    2.039791|
|          71|  5.5974e+00|  6.1913e-09|  7.6965e-01|  5.0000e-01|  5.0000e-01|  5.0000e-01|   -5.633644|   -5.726334|   -6.319930|   -5.965984|   -5.901141|   -8.386939|    2.039789|
|          72|  5.5986e+00|  6.1912e-09|  7.6965e-01|  5.0000e-01|  5.0000e-01|  5.0000e-01|   -5.634247|   -5.726927|   -6.320382|   -5.966498|   -5.901619|   -8.387752|    2.039788|
|          73|  5.6004e+00|  6.1912e-09|  7.6965e-01|  5.0000e-01|  5.0000e-01|  5.0000e-01|   -5.634854|   -5.727526|   -6.320835|   -5.967017|   -5.902101|   -8.388573|    2.039787|
|          74|  5.6022e+00|  6.1911e-09|  7.6965e-01|  5.0000e-01|  5.0000e-01|  5.0000e-01|   -5.635467|   -5.728130|   -6.321288|   -5.967540|   -5.902588|   -8.389403|    2.039786|
|          75|  5.6026e+00|  6.1911e-09|  7.6965e-01|  5.0000e-01|  5.0000e-01|  5.0000e-01|   -5.636083|   -5.728738|   -6.321740|   -5.968067|   -5.903080|   -8.390242|    2.039785|
|          76|  5.6033e+00|  6.1910e-09|  7.6965e-01|  5.0000e-01|  5.0000e-01|  5.0000e-01|   -5.636705|   -5.729352|   -6.322192|   -5.968599|   -5.903576|   -8.391090|    2.039785|
|          77|  5.6046e+00|  6.1910e-09|  7.6965e-01|  5.0000e-01|  5.0000e-01|  5.0000e-01|   -5.637331|   -5.729970|   -6.322644|   -5.969134|   -5.904076|   -8.391946|    2.039784|
|          78|  5.6057e+00|  6.1909e-09|  7.6965e-01|  5.0000e-01|  5.0000e-01|  5.0000e-01|   -5.637961|   -5.730593|   -6.323095|   -5.969673|   -5.904581|   -8.392812|    2.039784|
|          79|  5.6084e+00|  6.1909e-09|  7.6965e-01|  5.0000e-01|  5.0000e-01|  5.0000e-01|   -5.638596|   -5.731221|   -6.323546|   -5.970216|   -5.905089|   -8.393688|    2.039784|
|          80|  5.6098e+00|  6.1908e-09|  7.6965e-01|  5.0000e-01|  5.0000e-01|  5.0000e-01|   -5.639234|   -5.731853|   -6.323997|   -5.970763|   -5.905602|   -8.394573|    2.039784|
|          81|  5.6113e+00|  6.1908e-09|  7.6965e-01|  5.0000e-01|  5.0000e-01|  5.0000e-01|   -5.639877|   -5.732490|   -6.324448|   -5.971314|   -5.906118|   -8.395467|    2.039784|
|          82|  5.6117e+00|  6.1907e-09|  7.6965e-01|  5.0000e-01|  5.0000e-01|  5.0000e-01|   -5.640524|   -5.733132|   -6.324898|   -5.971869|   -5.906639|   -8.396372|    2.039785|
|          83|  5.6121e+00|  6.1907e-09|  7.6965e-01|  5.0000e-01|  5.0000e-01|  5.0000e-01|   -5.641175|   -5.733778|   -6.325348|   -5.972427|   -5.907162|   -8.397286|    2.039785|
|          84|  5.6127e+00|  6.1907e-09|  7.6965e-01|  5.0000e-01|  5.0000e-01|  5.0000e-01|   -5.641829|   -5.734428|   -6.325798|   -5.972989|   -5.907689|   -8.398211|    2.039786|
|          85|  5.6133e+00|  6.1906e-09|  7.6965e-01|  5.0000e-01|  5.0000e-01|  5.0000e-01|   -5.642487|   -5.735082|   -6.326247|   -5.973555|   -5.908220|   -8.399147|    2.039787|
|          86|  5.6138e+00|  6.1906e-09|  7.6965e-01|  5.0000e-01|  5.0000e-01|  5.0000e-01|   -5.643149|   -5.735740|   -6.326697|   -5.974124|   -5.908754|   -8.400092|    2.039788|
|          87|  5.6149e+00|  6.1905e-09|  7.6965e-01|  5.0000e-01|  5.0000e-01|  5.0000e-01|   -5.643814|   -5.736402|   -6.327146|   -5.974698|   -5.909292|   -8.401049|    2.039789|
|          88|  5.6154e+00|  6.1905e-09|  7.6965e-01|  5.0000e-01|  5.0000e-01|  5.0000e-01|   -5.644483|   -5.737069|   -6.327595|   -5.975275|   -5.909833|   -8.402016|    2.039791|
|          89|  5.6163e+00|  6.1904e-09|  7.6965e-01|  5.0000e-01|  5.0000e-01|  5.0000e-01|   -5.645155|   -5.737739|   -6.328044|   -5.975856|   -5.910377|   -8.402994|    2.039792|
|          90|  5.6164e+00|  6.1904e-09|  7.6965e-01|  5.0000e-01|  5.0000e-01|  5.0000e-01|   -5.645830|   -5.738413|   -6.328491|   -5.976440|   -5.910924|   -8.403984|    2.039794|
|          91|  5.6183e+00|  6.1904e-09|  7.6965e-01|  5.0000e-01|  5.0000e-01|  5.0000e-01|   -5.646509|   -5.739091|   -6.328939|   -5.977028|   -5.911474|   -8.404984|    2.039796|
|          92|  5.6195e+00|  6.1903e-09|  7.6965e-01|  5.0000e-01|  5.0000e-01|  5.0000e-01|   -5.647190|   -5.739773|   -6.329385|   -5.977619|   -5.912027|   -8.405997|    2.039798|
|          93|  5.6201e+00|  6.1903e-09|  7.6965e-01|  5.0000e-01|  5.0000e-01|  5.0000e-01|   -5.647874|   -5.740457|   -6.329831|   -5.978214|   -5.912583|   -8.407020|    2.039800|
|          94|  5.6212e+00|  6.1902e-09|  7.6965e-01|  5.0000e-01|  5.0000e-01|  5.0000e-01|   -5.648561|   -5.741146|   -6.330277|   -5.978811|   -5.913141|   -8.408056|    2.039802|
|          95|  5.6212e+00|  6.1902e-09|  7.6965e-01|  5.0000e-01|  5.0000e-01|  5.0000e-01|   -5.649250|   -5.741837|   -6.330722|   -5.979413|   -5.913702|   -8.409103|    2.039805|
|          96|  5.6210e+00|  6.1902e-09|  7.6965e-01|  5.0000e-01|  5.0000e-01|  5.0000e-01|   -5.649941|   -5.742532|   -6.331166|   -5.980017|   -5.914265|   -8.410163|    2.039808|
|          97|  5.6213e+00|  6.1901e-09|  7.6965e-01|  5.0000e-01|  5.0000e-01|  5.0000e-01|   -5.650635|   -5.743230|   -6.331609|   -5.980625|   -5.914831|   -8.411234|    2.039810|
|          98|  5.6218e+00|  6.1901e-09|  7.6965e-01|  5.0000e-01|  5.0000e-01|  5.0000e-01|   -5.651332|   -5.743931|   -6.332052|   -5.981236|   -5.915399|   -8.412318|    2.039813|
|          99|  5.6217e+00|  6.1900e-09|  7.6965e-01|  5.0000e-01|  5.0000e-01|  5.0000e-01|   -5.652031|   -5.744636|   -6.332494|   -5.981850|   -5.915970|   -8.413414|    2.039817|
|         100|  5.6223e+00|  6.1900e-09|  7.6965e-01|  5.0000e-01|  5.0000e-01|  5.0000e-01|   -5.652732|   -5.745342|   -6.332935|   -5.982467|   -5.916542|   -8.414523|    2.039820|
|         101|  5.6231e+00|  6.1900e-09|  7.6965e-01|  5.0000e-01|  5.0000e-01|  5.0000e-01|   -5.653435|   -5.746052|   -6.333376|   -5.983086|   -5.917117|   -8.415645|    2.039824|
|         102|  5.6234e+00|  6.1899e-09|  7.6965e-01|  5.0000e-01|  5.0000e-01|  5.0000e-01|   -5.654140|   -5.746764|   -6.333815|   -5.983708|   -5.917694|   -8.416779|    2.039827|
|         103|  5.6235e+00|  6.1899e-09|  7.6965e-01|  5.0000e-01|  5.0000e-01|  5.0000e-01|   -5.654847|   -5.747479|   -6.334255|   -5.984333|   -5.918273|   -8.417927|    2.039831|
|         104|  5.6235e+00|  6.1899e-09|  7.6965e-01|  5.0000e-01|  5.0000e-01|  5.0000e-01|   -5.655555|   -5.748197|   -6.334693|   -5.984960|   -5.918854|   -8.419087|    2.039835|
|         105|  5.6238e+00|  6.1898e-09|  7.6965e-01|  5.0000e-01|  5.0000e-01|  5.0000e-01|   -5.656266|   -5.748917|   -6.335131|   -5.985590|   -5.919437|   -8.420261|    2.039839|
|         106|  5.6241e+00|  6.1898e-09|  7.6965e-01|  5.0000e-01|  5.0000e-01|  5.0000e-01|   -5.656979|   -5.749639|   -6.335568|   -5.986222|   -5.920022|   -8.421448|    2.039844|
|         107|  5.6249e+00|  6.1897e-09|  7.6965e-01|  5.0000e-01|  5.0000e-01|  5.0000e-01|   -5.657693|   -5.750364|   -6.336004|   -5.986857|   -5.920608|   -8.422648|    2.039848|
|         108|  5.6263e+00|  6.1897e-09|  7.6965e-01|  5.0000e-01|  5.0000e-01|  5.0000e-01|   -5.658409|   -5.751090|   -6.336438|   -5.987494|   -5.921197|   -8.423862|    2.039853|
|         109|  5.6270e+00|  6.1897e-09|  7.6965e-01|  5.0000e-01|  5.0000e-01|  5.0000e-01|   -5.659127|   -5.751819|   -6.336871|   -5.988134|   -5.921787|   -8.425090|    2.039858|
|         110|  5.6270e+00|  6.1896e-09|  7.6965e-01|  5.0000e-01|  5.0000e-01|  5.0000e-01|   -5.659847|   -5.752550|   -6.337304|   -5.988777|   -5.922380|   -8.426332|    2.039863|
|         111|  5.6276e+00|  6.1896e-09|  7.6965e-01|  5.0000e-01|  5.0000e-01|  5.0000e-01|   -5.660568|   -5.753283|   -6.337737|   -5.989421|   -5.922974|   -8.427587|    2.039868|
|         112|  5.6276e+00|  6.1896e-09|  7.6965e-01|  5.0000e-01|  5.0000e-01|  5.0000e-01|   -5.661291|   -5.754018|   -6.338169|   -5.990068|   -5.923569|   -8.428856|    2.039873|
|         113|  5.6277e+00|  6.1895e-09|  7.6965e-01|  5.0000e-01|  5.0000e-01|  5.0000e-01|   -5.662015|   -5.754755|   -6.338600|   -5.990717|   -5.924166|   -8.430140|    2.039879|
|         114|  5.6282e+00|  6.1895e-09|  7.6965e-01|  5.0000e-01|  5.0000e-01|  5.0000e-01|   -5.662741|   -5.755494|   -6.339031|   -5.991368|   -5.924765|   -8.431437|    2.039885|
|         115|  5.6289e+00|  6.1895e-09|  7.6965e-01|  5.0000e-01|  5.0000e-01|  5.0000e-01|   -5.663469|   -5.756235|   -6.339460|   -5.992022|   -5.925366|   -8.432749|    2.039891|
|         116|  5.6293e+00|  6.1894e-09|  7.6965e-01|  5.0000e-01|  5.0000e-01|  5.0000e-01|   -5.664198|   -5.756978|   -6.339889|   -5.992678|   -5.925968|   -8.434076|    2.039897|
|         117|  5.6304e+00|  6.1894e-09|  7.6965e-01|  5.0000e-01|  5.0000e-01|  5.0000e-01|   -5.664930|   -5.757724|   -6.340318|   -5.993338|   -5.926573|   -8.435416|    2.039903|
|         118|  5.6304e+00|  6.1894e-09|  7.6965e-01|  5.0000e-01|  5.0000e-01|  5.0000e-01|   -5.665664|   -5.758472|   -6.340746|   -5.994000|   -5.927181|   -8.436772|    2.039909|
|         119|  5.6301e+00|  6.1893e-09|  7.6965e-01|  5.0000e-01|  5.0000e-01|  5.0000e-01|   -5.666399|   -5.759223|   -6.341173|   -5.994664|   -5.927789|   -8.438141|    2.039916|
|         120|  5.6325e+00|  6.1893e-09|  7.6965e-01|  5.0000e-01|  5.0000e-01|  5.0000e-01|   -5.667135|   -5.759974|   -6.341599|   -5.995330|   -5.928399|   -8.439526|    2.039922|
|         121|  5.6333e+00|  6.1893e-09|  7.6965e-01|  5.0000e-01|  5.0000e-01|  5.0000e-01|   -5.667872|   -5.760728|   -6.342023|   -5.995999|   -5.929010|   -8.440925|    2.039929|
|         122|  5.6336e+00|  6.1893e-09|  7.6965e-01|  5.0000e-01|  5.0000e-01|  5.0000e-01|   -5.668611|   -5.761483|   -6.342447|   -5.996669|   -5.929622|   -8.442339|    2.039936|
|         123|  5.6342e+00|  6.1892e-09|  7.6965e-01|  5.0000e-01|  5.0000e-01|  5.0000e-01|   -5.669350|   -5.762240|   -6.342869|   -5.997341|   -5.930236|   -8.443768|    2.039943|
|         124|  5.6359e+00|  6.1892e-09|  7.6965e-01|  5.0000e-01|  5.0000e-01|  5.0000e-01|   -5.670091|   -5.762998|   -6.343291|   -5.998016|   -5.930851|   -8.445212|    2.039951|
|         125|  5.6368e+00|  6.1892e-09|  7.6965e-01|  5.0000e-01|  5.0000e-01|  5.0000e-01|   -5.670833|   -5.763759|   -6.343711|   -5.998692|   -5.931468|   -8.446671|    2.039958|
|         126|  5.6377e+00|  6.1891e-09|  7.6965e-01|  5.0000e-01|  5.0000e-01|  5.0000e-01|   -5.671576|   -5.764521|   -6.344131|   -5.999371|   -5.932086|   -8.448144|    2.039966|
|         127|  5.6390e+00|  6.1891e-09|  7.6965e-01|  5.0000e-01|  5.0000e-01|  5.0000e-01|   -5.672320|   -5.765285|   -6.344550|   -6.000052|   -5.932706|   -8.449633|    2.039974|
|         128|  5.6391e+00|  6.1891e-09|  7.6965e-01|  5.0000e-01|  5.0000e-01|  5.0000e-01|   -5.673066|   -5.766051|   -6.344967|   -6.000735|   -5.933327|   -8.451137|    2.039982|
|         129|  5.6396e+00|  6.1890e-09|  7.6965e-01|  5.0000e-01|  5.0000e-01|  5.0000e-01|   -5.673812|   -5.766818|   -6.345382|   -6.001420|   -5.933949|   -8.452656|    2.039990|
|         130|  5.6401e+00|  6.1890e-09|  7.6965e-01|  5.0000e-01|  5.0000e-01|  5.0000e-01|   -5.674560|   -5.767587|   -6.345797|   -6.002108|   -5.934573|   -8.454190|    2.039998|
|         131|  5.6407e+00|  6.1890e-09|  7.6965e-01|  5.0000e-01|  5.0000e-01|  5.0000e-01|   -5.675308|   -5.768358|   -6.346210|   -6.002797|   -5.935198|   -8.455739|    2.040007|
|         132|  5.6412e+00|  6.1890e-09|  7.6965e-01|  5.0000e-01|  5.0000e-01|  5.0000e-01|   -5.676057|   -5.769130|   -6.346622|   -6.003488|   -5.935824|   -8.457303|    2.040016|
|         133|  5.6415e+00|  6.1889e-09|  7.6965e-01|  5.0000e-01|  5.0000e-01|  5.0000e-01|   -5.676807|   -5.769904|   -6.347032|   -6.004182|   -5.936451|   -8.458882|    2.040024|
|         134|  5.6418e+00|  6.1889e-09|  7.6965e-01|  5.0000e-01|  5.0000e-01|  5.0000e-01|   -5.677557|   -5.770679|   -6.347441|   -6.004877|   -5.937079|   -8.460476|    2.040033|
|         135|  5.6432e+00|  6.1889e-09|  7.6965e-01|  5.0000e-01|  5.0000e-01|  5.0000e-01|   -5.678309|   -5.771456|   -6.347849|   -6.005574|   -5.937708|   -8.462085|    2.040042|
|         136|  5.6437e+00|  6.1889e-09|  7.6965e-01|  5.0000e-01|  5.0000e-01|  5.0000e-01|   -5.679061|   -5.772234|   -6.348256|   -6.006273|   -5.938339|   -8.463709|    2.040052|
|         137|  5.6438e+00|  6.1888e-09|  7.6965e-01|  5.0000e-01|  5.0000e-01|  5.0000e-01|   -5.679813|   -5.773013|   -6.348661|   -6.006974|   -5.938971|   -8.465348|    2.040061|
|         138|  5.6438e+00|  6.1888e-09|  7.6965e-01|  5.0000e-01|  5.0000e-01|  5.0000e-01|   -5.680566|   -5.773794|   -6.349065|   -6.007676|   -5.939603|   -8.467002|    2.040071|
|         139|  5.6439e+00|  6.1888e-09|  7.6965e-01|  5.0000e-01|  5.0000e-01|  5.0000e-01|   -5.681320|   -5.774576|   -6.349468|   -6.008381|   -5.940237|   -8.468670|    2.040081|
|         140|  5.6448e+00|  6.1888e-09|  7.6965e-01|  5.0000e-01|  5.0000e-01|  5.0000e-01|   -5.682072|   -5.775357|   -6.349868|   -6.009086|   -5.940870|   -8.470354|    2.040091|
|         141|  5.6455e+00|  6.1887e-09|  7.6965e-01|  5.0000e-01|  5.0000e-01|  5.0000e-01|   -5.682823|   -5.776140|   -6.350267|   -6.009793|   -5.941503|   -8.472052|    2.040101|
|         142|  5.6462e+00|  6.1887e-09|  7.6965e-01|  5.0000e-01|  5.0000e-01|  5.0000e-01|   -5.683575|   -5.776923|   -6.350664|   -6.010501|   -5.942138|   -8.473764|    2.040111|
|         143|  5.6470e+00|  6.1887e-09|  7.6965e-01|  5.0000e-01|  5.0000e-01|  5.0000e-01|   -5.684328|   -5.777708|   -6.351060|   -6.011212|   -5.942773|   -8.475491|    2.040121|
|         144|  5.6478e+00|  6.1887e-09|  7.6965e-01|  5.0000e-01|  5.0000e-01|  5.0000e-01|   -5.685081|   -5.778494|   -6.351456|   -6.011924|   -5.943411|   -8.477233|    2.040132|
|         145|  5.6478e+00|  6.1886e-09|  7.6965e-01|  5.0000e-01|  5.0000e-01|  5.0000e-01|   -5.685834|   -5.779282|   -6.351851|   -6.012638|   -5.944049|   -8.478988|    2.040143|
|         146|  5.6478e+00|  6.1886e-09|  7.6965e-01|  5.0000e-01|  5.0000e-01|  5.0000e-01|   -5.686588|   -5.780072|   -6.352245|   -6.013354|   -5.944688|   -8.480758|    2.040154|
|         147|  5.6483e+00|  6.1886e-09|  7.6965e-01|  5.0000e-01|  5.0000e-01|  5.0000e-01|   -5.687342|   -5.780862|   -6.352637|   -6.014072|   -5.945329|   -8.482541|    2.040165|
|         148|  5.6482e+00|  6.1886e-09|  7.6965e-01|  5.0000e-01|  5.0000e-01|  5.0000e-01|   -5.688096|   -5.781655|   -6.353027|   -6.014791|   -5.945971|   -8.484339|    2.040176|
|         149|  5.6489e+00|  6.1886e-09|  7.6965e-01|  5.0000e-01|  5.0000e-01|  5.0000e-01|   -5.688850|   -5.782448|   -6.353416|   -6.015513|   -5.946613|   -8.486150|    2.040187|
|         150|  5.6495e+00|  6.1885e-09|  7.6965e-01|  5.0000e-01|  5.0000e-01|  5.0000e-01|   -5.689605|   -5.783243|   -6.353802|   -6.016236|   -5.947257|   -8.487974|    2.040199|
+-----------------------------------------------------------------------+
|        File Writing Summary       |              Filename             |
+-----------------------------------------------------------------------+
|SU2 binary restart                 |restart_flow.dat                   |
|Paraview                           |flow.vtu                           |
|Paraview surface                   |surface_flow.vtu                   |
+-----------------------------------------------------------------------+
+-------------------------------------------------------------------------------------------------------------------------------------------------------------------------------------+
|  Inner_Iter|   Time(sec)|      Min DT|      Max DT|     Min CFL|     Max CFL|     Avg CFL|    rms[Rho]|   rms[RhoU]|   rms[RhoV]|   rms[RhoW]|   rms[RhoE]|     rms[nu]|          CD|
+-------------------------------------------------------------------------------------------------------------------------------------------------------------------------------------+
|         151|  5.8119e+00|  6.1885e-09|  7.6965e-01|  5.0000e-01|  5.0000e-01|  5.0000e-01|   -5.690360|   -5.784039|   -6.354187|   -6.016961|   -5.947902|   -8.489811|    2.040210|
|         152|  5.8119e+00|  6.1885e-09|  7.6965e-01|  5.0000e-01|  5.0000e-01|  5.0000e-01|   -5.691114|   -5.784836|   -6.354570|   -6.017688|   -5.948548|   -8.491661|    2.040222|
|         153|  5.8124e+00|  6.1885e-09|  7.6965e-01|  5.0000e-01|  5.0000e-01|  5.0000e-01|   -5.691869|   -5.785635|   -6.354951|   -6.018417|   -5.949195|   -8.493524|    2.040234|
|         154|  5.8113e+00|  6.1884e-09|  7.6965e-01|  5.0000e-01|  5.0000e-01|  5.0000e-01|   -5.692623|   -5.786435|   -6.355330|   -6.019147|   -5.949843|   -8.495399|    2.040246|
|         155|  5.8104e+00|  6.1884e-09|  7.6965e-01|  5.0000e-01|  5.0000e-01|  5.0000e-01|   -5.693377|   -5.787235|   -6.355707|   -6.019879|   -5.950491|   -8.497287|    2.040259|
|         156|  5.8093e+00|  6.1884e-09|  7.6965e-01|  5.0000e-01|  5.0000e-01|  5.0000e-01|   -5.694132|   -5.788037|   -6.356082|   -6.020612|   -5.951141|   -8.499186|    2.040271|
|         157|  5.8080e+00|  6.1884e-09|  7.6965e-01|  5.0000e-01|  5.0000e-01|  5.0000e-01|   -5.694886|   -5.788841|   -6.356456|   -6.021348|   -5.951792|   -8.501097|    2.040284|
|         158|  5.8075e+00|  6.1884e-09|  7.6965e-01|  5.0000e-01|  5.0000e-01|  5.0000e-01|   -5.695640|   -5.789645|   -6.356827|   -6.022086|   -5.952443|   -8.503019|    2.040297|
|         159|  5.8067e+00|  6.1884e-09|  7.6965e-01|  5.0000e-01|  5.0000e-01|  5.0000e-01|   -5.696394|   -5.790450|   -6.357195|   -6.022826|   -5.953096|   -8.504952|    2.040310|
|         160|  5.8064e+00|  6.1883e-09|  7.6965e-01|  5.0000e-01|  5.0000e-01|  5.0000e-01|   -5.697148|   -5.791257|   -6.357562|   -6.023568|   -5.953750|   -8.506895|    2.040323|
|         161|  5.8056e+00|  6.1883e-09|  7.6965e-01|  5.0000e-01|  5.0000e-01|  5.0000e-01|   -5.697902|   -5.792064|   -6.357927|   -6.024311|   -5.954405|   -8.508849|    2.040336|
|         162|  5.8049e+00|  6.1883e-09|  7.6965e-01|  5.0000e-01|  5.0000e-01|  5.0000e-01|   -5.698656|   -5.792872|   -6.358290|   -6.025056|   -5.955061|   -8.510812|    2.040349|
|         163|  5.8045e+00|  6.1883e-09|  7.6965e-01|  5.0000e-01|  5.0000e-01|  5.0000e-01|   -5.699408|   -5.793680|   -6.358649|   -6.025802|   -5.955716|   -8.512784|    2.040363|
|         164|  5.8035e+00|  6.1883e-09|  7.6965e-01|  5.0000e-01|  5.0000e-01|  5.0000e-01|   -5.700160|   -5.794488|   -6.359007|   -6.026549|   -5.956373|   -8.514765|    2.040377|
|         165|  5.8021e+00|  6.1883e-09|  7.6965e-01|  5.0000e-01|  5.0000e-01|  5.0000e-01|   -5.700910|   -5.795297|   -6.359362|   -6.027297|   -5.957030|   -8.516755|    2.040391|
|         166|  5.8008e+00|  6.1882e-09|  7.6965e-01|  5.0000e-01|  5.0000e-01|  5.0000e-01|   -5.701661|   -5.796106|   -6.359716|   -6.028046|   -5.957687|   -8.518752|    2.040405|
|         167|  5.7999e+00|  6.1882e-09|  7.6965e-01|  5.0000e-01|  5.0000e-01|  5.0000e-01|   -5.702410|   -5.796915|   -6.360067|   -6.028796|   -5.958345|   -8.520757|    2.040419|
|         168|  5.7987e+00|  6.1882e-09|  7.6965e-01|  5.0000e-01|  5.0000e-01|  5.0000e-01|   -5.703158|   -5.797723|   -6.360415|   -6.029547|   -5.959003|   -8.522769|    2.040433|
|         169|  5.7981e+00|  6.1882e-09|  7.6965e-01|  5.0000e-01|  5.0000e-01|  5.0000e-01|   -5.703905|   -5.798532|   -6.360762|   -6.030299|   -5.959661|   -8.524786|    2.040448|
|         170|  5.7969e+00|  6.1882e-09|  7.6965e-01|  5.0000e-01|  5.0000e-01|  5.0000e-01|   -5.704651|   -5.799340|   -6.361106|   -6.031052|   -5.960319|   -8.526810|    2.040462|
|         171|  5.7961e+00|  6.1882e-09|  7.6965e-01|  5.0000e-01|  5.0000e-01|  5.0000e-01|   -5.705396|   -5.800147|   -6.361448|   -6.031805|   -5.960977|   -8.528838|    2.040477|
|         172|  5.7951e+00|  6.1881e-09|  7.6965e-01|  5.0000e-01|  5.0000e-01|  5.0000e-01|   -5.706139|   -5.800954|   -6.361788|   -6.032559|   -5.961635|   -8.530871|    2.040492|
|         173|  5.7944e+00|  6.1881e-09|  7.6965e-01|  5.0000e-01|  5.0000e-01|  5.0000e-01|   -5.706880|   -5.801760|   -6.362125|   -6.033313|   -5.962292|   -8.532907|    2.040507|
|         174|  5.7943e+00|  6.1881e-09|  7.6965e-01|  5.0000e-01|  5.0000e-01|  5.0000e-01|   -5.707620|   -5.802564|   -6.362459|   -6.034068|   -5.962950|   -8.534946|    2.040522|
|         175|  5.7934e+00|  6.1881e-09|  7.6965e-01|  5.0000e-01|  5.0000e-01|  5.0000e-01|   -5.708357|   -5.803368|   -6.362791|   -6.034822|   -5.963606|   -8.536987|    2.040538|
|         176|  5.7925e+00|  6.1881e-09|  7.6965e-01|  5.0000e-01|  5.0000e-01|  5.0000e-01|   -5.709093|   -5.804171|   -6.363121|   -6.035577|   -5.964263|   -8.539030|    2.040553|
|         177|  5.7919e+00|  6.1881e-09|  7.6965e-01|  5.0000e-01|  5.0000e-01|  5.0000e-01|   -5.709828|   -5.804972|   -6.363449|   -6.036332|   -5.964919|   -8.541073|    2.040569|
|         178|  5.7909e+00|  6.1881e-09|  7.6965e-01|  5.0000e-01|  5.0000e-01|  5.0000e-01|   -5.710560|   -5.805772|   -6.363773|   -6.037087|   -5.965574|   -8.543116|    2.040585|
|         179|  5.7903e+00|  6.1881e-09|  7.6965e-01|  5.0000e-01|  5.0000e-01|  5.0000e-01|   -5.711290|   -5.806570|   -6.364096|   -6.037843|   -5.966229|   -8.545157|    2.040601|
|         180|  5.7896e+00|  6.1880e-09|  7.6965e-01|  5.0000e-01|  5.0000e-01|  5.0000e-01|   -5.712018|   -5.807367|   -6.364415|   -6.038598|   -5.966883|   -8.547197|    2.040617|
|         181|  5.7895e+00|  6.1880e-09|  7.6965e-01|  5.0000e-01|  5.0000e-01|  5.0000e-01|   -5.712744|   -5.808163|   -6.364733|   -6.039353|   -5.967535|   -8.549234|    2.040634|
|         182|  5.7891e+00|  6.1880e-09|  7.6965e-01|  5.0000e-01|  5.0000e-01|  5.0000e-01|   -5.713466|   -5.808956|   -6.365047|   -6.040108|   -5.968187|   -8.551267|    2.040650|
|         183|  5.7886e+00|  6.1880e-09|  7.6965e-01|  5.0000e-01|  5.0000e-01|  5.0000e-01|   -5.714185|   -5.809747|   -6.365358|   -6.040863|   -5.968836|   -8.553295|    2.040667|
|         184|  5.7878e+00|  6.1880e-09|  7.6965e-01|  5.0000e-01|  5.0000e-01|  5.0000e-01|   -5.714901|   -5.810535|   -6.365667|   -6.041617|   -5.969484|   -8.555317|    2.040683|
|         185|  5.7873e+00|  6.1880e-09|  7.6965e-01|  5.0000e-01|  5.0000e-01|  5.0000e-01|   -5.715615|   -5.811322|   -6.365974|   -6.042370|   -5.970131|   -8.557331|    2.040700|
|         186|  5.7867e+00|  6.1880e-09|  7.6965e-01|  5.0000e-01|  5.0000e-01|  5.0000e-01|   -5.716325|   -5.812106|   -6.366278|   -6.043124|   -5.970777|   -8.559338|    2.040717|
|         187|  5.7867e+00|  6.1880e-09|  7.6965e-01|  5.0000e-01|  5.0000e-01|  5.0000e-01|   -5.717033|   -5.812888|   -6.366580|   -6.043876|   -5.971421|   -8.561336|    2.040735|
|         188|  5.7855e+00|  6.1880e-09|  7.6965e-01|  5.0000e-01|  5.0000e-01|  5.0000e-01|   -5.717738|   -5.813668|   -6.366879|   -6.044629|   -5.972064|   -8.563322|    2.040752|
|         189|  5.7846e+00|  6.1879e-09|  7.6965e-01|  5.0000e-01|  5.0000e-01|  5.0000e-01|   -5.718439|   -5.814445|   -6.367176|   -6.045380|   -5.972706|   -8.565298|    2.040770|
|         190|  5.7841e+00|  6.1879e-09|  7.6965e-01|  5.0000e-01|  5.0000e-01|  5.0000e-01|   -5.719137|   -5.815219|   -6.367470|   -6.046131|   -5.973345|   -8.567260|    2.040787|
|         191|  5.7836e+00|  6.1879e-09|  7.6965e-01|  5.0000e-01|  5.0000e-01|  5.0000e-01|   -5.719831|   -5.815991|   -6.367762|   -6.046881|   -5.973983|   -8.569208|    2.040805|
|         192|  5.7831e+00|  6.1879e-09|  7.6965e-01|  5.0000e-01|  5.0000e-01|  5.0000e-01|   -5.720522|   -5.816760|   -6.368051|   -6.047630|   -5.974619|   -8.571141|    2.040823|
|         193|  5.7826e+00|  6.1879e-09|  7.6965e-01|  5.0000e-01|  5.0000e-01|  5.0000e-01|   -5.721209|   -5.817526|   -6.368337|   -6.048378|   -5.975253|   -8.573056|    2.040841|
|         194|  5.7823e+00|  6.1879e-09|  7.6965e-01|  5.0000e-01|  5.0000e-01|  5.0000e-01|   -5.721893|   -5.818290|   -6.368621|   -6.049125|   -5.975885|   -8.574954|    2.040860|
|         195|  5.7816e+00|  6.1879e-09|  7.6965e-01|  5.0000e-01|  5.0000e-01|  5.0000e-01|   -5.722573|   -5.819050|   -6.368902|   -6.049872|   -5.976516|   -8.576832|    2.040878|
|         196|  5.7812e+00|  6.1879e-09|  7.6965e-01|  5.0000e-01|  5.0000e-01|  5.0000e-01|   -5.723250|   -5.819808|   -6.369181|   -6.050619|   -5.977145|   -8.578688|    2.040897|
|         197|  5.7806e+00|  6.1879e-09|  7.6965e-01|  5.0000e-01|  5.0000e-01|  5.0000e-01|   -5.723923|   -5.820563|   -6.369457|   -6.051365|   -5.977772|   -8.580522|    2.040915|
|         198|  5.7799e+00|  6.1879e-09|  7.6965e-01|  5.0000e-01|  5.0000e-01|  5.0000e-01|   -5.724593|   -5.821315|   -6.369731|   -6.052111|   -5.978398|   -8.582334|    2.040934|
|         199|  5.7797e+00|  6.1879e-09|  7.6965e-01|  5.0000e-01|  5.0000e-01|  5.0000e-01|   -5.725259|   -5.822064|   -6.370002|   -6.052856|   -5.979023|   -8.584119|    2.040953|
|         200|  5.7794e+00|  6.1879e-09|  7.6965e-01|  5.0000e-01|  5.0000e-01|  5.0000e-01|   -5.725921|   -5.822810|   -6.370270|   -6.053600|   -5.979645|   -8.585878|    2.040973|
|         201|  5.7790e+00|  6.1879e-09|  7.6965e-01|  5.0000e-01|  5.0000e-01|  5.0000e-01|   -5.726579|   -5.823553|   -6.370535|   -6.054343|   -5.980265|   -8.587608|    2.040992|
|         202|  5.7787e+00|  6.1879e-09|  7.6965e-01|  5.0000e-01|  5.0000e-01|  5.0000e-01|   -5.727233|   -5.824292|   -6.370796|   -6.055086|   -5.980883|   -8.589307|    2.041011|
|         203|  5.7781e+00|  6.1879e-09|  7.6965e-01|  5.0000e-01|  5.0000e-01|  5.0000e-01|   -5.727883|   -5.825028|   -6.371055|   -6.055827|   -5.981499|   -8.590974|    2.041031|
|         204|  5.7779e+00|  6.1878e-09|  7.6965e-01|  5.0000e-01|  5.0000e-01|  5.0000e-01|   -5.728528|   -5.825761|   -6.371311|   -6.056568|   -5.982113|   -8.592607|    2.041051|
|         205|  5.7771e+00|  6.1878e-09|  7.6965e-01|  5.0000e-01|  5.0000e-01|  5.0000e-01|   -5.729170|   -5.826490|   -6.371564|   -6.057307|   -5.982725|   -8.594205|    2.041071|
|         206|  5.7764e+00|  6.1878e-09|  7.6965e-01|  5.0000e-01|  5.0000e-01|  5.0000e-01|   -5.729807|   -5.827216|   -6.371814|   -6.058044|   -5.983334|   -8.595766|    2.041091|
|         207|  5.7755e+00|  6.1878e-09|  7.6965e-01|  5.0000e-01|  5.0000e-01|  5.0000e-01|   -5.730439|   -5.827938|   -6.372061|   -6.058781|   -5.983942|   -8.597288|    2.041111|
|         208|  5.7751e+00|  6.1878e-09|  7.6965e-01|  5.0000e-01|  5.0000e-01|  5.0000e-01|   -5.731067|   -5.828657|   -6.372305|   -6.059517|   -5.984546|   -8.598769|    2.041131|
|         209|  5.7750e+00|  6.1878e-09|  7.6965e-01|  5.0000e-01|  5.0000e-01|  5.0000e-01|   -5.731690|   -5.829372|   -6.372547|   -6.060251|   -5.985149|   -8.600209|    2.041152|
|         210|  5.7744e+00|  6.1878e-09|  7.6965e-01|  5.0000e-01|  5.0000e-01|  5.0000e-01|   -5.732310|   -5.830083|   -6.372786|   -6.060985|   -5.985750|   -8.601604|    2.041173|
|         211|  5.7744e+00|  6.1878e-09|  7.6965e-01|  5.0000e-01|  5.0000e-01|  5.0000e-01|   -5.732925|   -5.830791|   -6.373022|   -6.061718|   -5.986349|   -8.602954|    2.041193|
|         212|  5.7737e+00|  6.1878e-09|  7.6965e-01|  5.0000e-01|  5.0000e-01|  5.0000e-01|   -5.733535|   -5.831496|   -6.373254|   -6.062450|   -5.986946|   -8.604257|    2.041214|
|         213|  5.7733e+00|  6.1878e-09|  7.6965e-01|  5.0000e-01|  5.0000e-01|  5.0000e-01|   -5.734141|   -5.832196|   -6.373483|   -6.063180|   -5.987540|   -8.605511|    2.041235|
|         214|  5.7729e+00|  6.1878e-09|  7.6965e-01|  5.0000e-01|  5.0000e-01|  5.0000e-01|   -5.734742|   -5.832892|   -6.373710|   -6.063908|   -5.988131|   -8.606714|    2.041257|
|         215|  5.7725e+00|  6.1878e-09|  7.6965e-01|  5.0000e-01|  5.0000e-01|  5.0000e-01|   -5.735337|   -5.833584|   -6.373933|   -6.064636|   -5.988720|   -8.607865|    2.041278|
|         216|  5.7719e+00|  6.1878e-09|  7.6965e-01|  5.0000e-01|  5.0000e-01|  5.0000e-01|   -5.735928|   -5.834272|   -6.374153|   -6.065361|   -5.989307|   -8.608962|    2.041299|
|         217|  5.7712e+00|  6.1878e-09|  7.6965e-01|  5.0000e-01|  5.0000e-01|  5.0000e-01|   -5.736514|   -5.834955|   -6.374371|   -6.066086|   -5.989891|   -8.610004|    2.041321|
|         218|  5.7713e+00|  6.1878e-09|  7.6965e-01|  5.0000e-01|  5.0000e-01|  5.0000e-01|   -5.737096|   -5.835635|   -6.374585|   -6.066809|   -5.990473|   -8.610988|    2.041343|
|         219|  5.7711e+00|  6.1878e-09|  7.6965e-01|  5.0000e-01|  5.0000e-01|  5.0000e-01|   -5.737672|   -5.836309|   -6.374796|   -6.067530|   -5.991052|   -8.611914|    2.041365|
|         220|  5.7709e+00|  6.1878e-09|  7.6965e-01|  5.0000e-01|  5.0000e-01|  5.0000e-01|   -5.738242|   -5.836980|   -6.375005|   -6.068249|   -5.991628|   -8.612780|    2.041387|
|         221|  5.7708e+00|  6.1878e-09|  7.6965e-01|  5.0000e-01|  5.0000e-01|  5.0000e-01|   -5.738808|   -5.837645|   -6.375209|   -6.068966|   -5.992201|   -8.613585|    2.041409|
|         222|  5.7718e+00|  6.1878e-09|  7.6965e-01|  5.0000e-01|  5.0000e-01|  5.0000e-01|   -5.739367|   -5.838306|   -6.375411|   -6.069682|   -5.992770|   -8.614326|    2.041432|
|         223|  5.7717e+00|  6.1878e-09|  7.6965e-01|  5.0000e-01|  5.0000e-01|  5.0000e-01|   -5.739921|   -5.838961|   -6.375610|   -6.070395|   -5.993337|   -8.615004|    2.041454|
|         224|  5.7718e+00|  6.1878e-09|  7.6965e-01|  5.0000e-01|  5.0000e-01|  5.0000e-01|   -5.740469|   -5.839612|   -6.375806|   -6.071106|   -5.993900|   -8.615615|    2.041477|
|         225|  5.7717e+00|  6.1878e-09|  7.6965e-01|  5.0000e-01|  5.0000e-01|  5.0000e-01|   -5.741012|   -5.840258|   -6.375999|   -6.071815|   -5.994461|   -8.616160|    2.041500|
|         226|  5.7711e+00|  6.1878e-09|  7.6965e-01|  5.0000e-01|  5.0000e-01|  5.0000e-01|   -5.741549|   -5.840899|   -6.376189|   -6.072521|   -5.995019|   -8.616637|    2.041523|
|         227|  5.7706e+00|  6.1878e-09|  7.6965e-01|  5.0000e-01|  5.0000e-01|  5.0000e-01|   -5.742081|   -5.841534|   -6.376375|   -6.073225|   -5.995573|   -8.617045|    2.041546|
|         228|  5.7706e+00|  6.1878e-09|  7.6965e-01|  5.0000e-01|  5.0000e-01|  5.0000e-01|   -5.742606|   -5.842164|   -6.376559|   -6.073926|   -5.996124|   -8.617383|    2.041569|
|         229|  5.7707e+00|  6.1878e-09|  7.6965e-01|  5.0000e-01|  5.0000e-01|  5.0000e-01|   -5.743127|   -5.842788|   -6.376740|   -6.074625|   -5.996671|   -8.617649|    2.041592|
|         230|  5.7706e+00|  6.1878e-09|  7.6965e-01|  5.0000e-01|  5.0000e-01|  5.0000e-01|   -5.743641|   -5.843407|   -6.376918|   -6.075321|   -5.997216|   -8.617844|    2.041616|
|         231|  5.7702e+00|  6.1878e-09|  7.6965e-01|  5.0000e-01|  5.0000e-01|  5.0000e-01|   -5.744149|   -5.844020|   -6.377092|   -6.076014|   -5.997756|   -8.617966|    2.041640|
|         232|  5.7698e+00|  6.1878e-09|  7.6965e-01|  5.0000e-01|  5.0000e-01|  5.0000e-01|   -5.744651|   -5.844627|   -6.377263|   -6.076705|   -5.998293|   -8.618015|    2.041663|
|         233|  5.7692e+00|  6.1878e-09|  7.6965e-01|  5.0000e-01|  5.0000e-01|  5.0000e-01|   -5.745147|   -5.845229|   -6.377432|   -6.077393|   -5.998827|   -8.617989|    2.041687|
|         234|  5.7691e+00|  6.1878e-09|  7.6965e-01|  5.0000e-01|  5.0000e-01|  5.0000e-01|   -5.745636|   -5.845824|   -6.377597|   -6.078078|   -5.999356|   -8.617889|    2.041711|
|         235|  5.7689e+00|  6.1878e-09|  7.6965e-01|  5.0000e-01|  5.0000e-01|  5.0000e-01|   -5.746119|   -5.846413|   -6.377758|   -6.078759|   -5.999881|   -8.617715|    2.041736|
|         236|  5.7683e+00|  6.1878e-09|  7.6965e-01|  5.0000e-01|  5.0000e-01|  5.0000e-01|   -5.746596|   -5.846996|   -6.377917|   -6.079438|   -6.000403|   -8.617464|    2.041760|
|         237|  5.7679e+00|  6.1878e-09|  7.6965e-01|  5.0000e-01|  5.0000e-01|  5.0000e-01|   -5.747066|   -5.847573|   -6.378073|   -6.080115|   -6.000921|   -8.617139|    2.041784|
|         238|  5.7678e+00|  6.1878e-09|  7.6965e-01|  5.0000e-01|  5.0000e-01|  5.0000e-01|   -5.747530|   -5.848144|   -6.378225|   -6.080788|   -6.001434|   -8.616737|    2.041809|
|         239|  5.7674e+00|  6.1879e-09|  7.6965e-01|  5.0000e-01|  5.0000e-01|  5.0000e-01|   -5.747988|   -5.848709|   -6.378375|   -6.081459|   -6.001944|   -8.616260|    2.041834|
|         240|  5.7670e+00|  6.1879e-09|  7.6965e-01|  5.0000e-01|  5.0000e-01|  5.0000e-01|   -5.748438|   -5.849267|   -6.378521|   -6.082126|   -6.002450|   -8.615707|    2.041859|
|         241|  5.7666e+00|  6.1879e-09|  7.6965e-01|  5.0000e-01|  5.0000e-01|  5.0000e-01|   -5.748882|   -5.849819|   -6.378664|   -6.082790|   -6.002951|   -8.615079|    2.041884|
|         242|  5.7663e+00|  6.1879e-09|  7.6965e-01|  5.0000e-01|  5.0000e-01|  5.0000e-01|   -5.749318|   -5.850363|   -6.378803|   -6.083450|   -6.003447|   -8.614375|    2.041909|
|         243|  5.7657e+00|  6.1879e-09|  7.6965e-01|  5.0000e-01|  5.0000e-01|  5.0000e-01|   -5.749748|   -5.850902|   -6.378940|   -6.084106|   -6.003940|   -8.613597|    2.041934|
|         244|  5.7655e+00|  6.1879e-09|  7.6965e-01|  5.0000e-01|  5.0000e-01|  5.0000e-01|   -5.750170|   -5.851433|   -6.379073|   -6.084759|   -6.004427|   -8.612744|    2.041960|
|         245|  5.7658e+00|  6.1879e-09|  7.6965e-01|  5.0000e-01|  5.0000e-01|  5.0000e-01|   -5.750585|   -5.851957|   -6.379204|   -6.085407|   -6.004910|   -8.611817|    2.041985|
|         246|  5.7655e+00|  6.1879e-09|  7.6965e-01|  5.0000e-01|  5.0000e-01|  5.0000e-01|   -5.750993|   -5.852474|   -6.379331|   -6.086052|   -6.005388|   -8.610817|    2.042011|
|         247|  5.7653e+00|  6.1879e-09|  7.6965e-01|  5.0000e-01|  5.0000e-01|  5.0000e-01|   -5.751394|   -5.852984|   -6.379455|   -6.086693|   -6.005862|   -8.609744|    2.042037|
|         248|  5.7648e+00|  6.1879e-09|  7.6965e-01|  5.0000e-01|  5.0000e-01|  5.0000e-01|   -5.751788|   -5.853487|   -6.379576|   -6.087331|   -6.006331|   -8.608599|    2.042063|
|         249|  5.7645e+00|  6.1879e-09|  7.6965e-01|  5.0000e-01|  5.0000e-01|  5.0000e-01|   -5.752174|   -5.853982|   -6.379695|   -6.087964|   -6.006795|   -8.607383|    2.042089|
|         250|  5.7643e+00|  6.1879e-09|  7.6965e-01|  5.0000e-01|  5.0000e-01|  5.0000e-01|   -5.752553|   -5.854470|   -6.379809|   -6.088592|   -6.007254|   -8.606098|    2.042116|
|         251|  5.7644e+00|  6.1879e-09|  7.6965e-01|  5.0000e-01|  5.0000e-01|  5.0000e-01|   -5.752924|   -5.854950|   -6.379920|   -6.089217|   -6.007708|   -8.604744|    2.042142|
|         252|  5.7641e+00|  6.1879e-09|  7.6965e-01|  5.0000e-01|  5.0000e-01|  5.0000e-01|   -5.753288|   -5.855423|   -6.380028|   -6.089837|   -6.008157|   -8.603321|    2.042169|
|         253|  5.7639e+00|  6.1879e-09|  7.6965e-01|  5.0000e-01|  5.0000e-01|  5.0000e-01|   -5.753643|   -5.855888|   -6.380132|   -6.090452|   -6.008600|   -8.601833|    2.042195|
|         254|  5.7639e+00|  6.1880e-09|  7.6965e-01|  5.0000e-01|  5.0000e-01|  5.0000e-01|   -5.753990|   -5.856345|   -6.380232|   -6.091063|   -6.009037|   -8.600279|    2.042222|
|         255|  5.7634e+00|  6.1880e-09|  7.6965e-01|  5.0000e-01|  5.0000e-01|  5.0000e-01|   -5.754328|   -5.856794|   -6.380329|   -6.091670|   -6.009469|   -8.598662|    2.042249|
|         256|  5.7629e+00|  6.1880e-09|  7.6965e-01|  5.0000e-01|  5.0000e-01|  5.0000e-01|   -5.754660|   -5.857235|   -6.380423|   -6.092272|   -6.009896|   -8.596982|    2.042276|
|         257|  5.7629e+00|  6.1880e-09|  7.6965e-01|  5.0000e-01|  5.0000e-01|  5.0000e-01|   -5.754983|   -5.857668|   -6.380514|   -6.092870|   -6.010317|   -8.595241|    2.042303|
|         258|  5.7627e+00|  6.1880e-09|  7.6965e-01|  5.0000e-01|  5.0000e-01|  5.0000e-01|   -5.755299|   -5.858093|   -6.380603|   -6.093463|   -6.010734|   -8.593441|    2.042331|
|         259|  5.7627e+00|  6.1880e-09|  7.6965e-01|  5.0000e-01|  5.0000e-01|  5.0000e-01|   -5.755607|   -5.858510|   -6.380688|   -6.094051|   -6.011145|   -8.591584|    2.042358|
|         260|  5.7623e+00|  6.1880e-09|  7.6965e-01|  5.0000e-01|  5.0000e-01|  5.0000e-01|   -5.755907|   -5.858919|   -6.380770|   -6.094634|   -6.011550|   -8.589670|    2.042386|
|         261|  5.7619e+00|  6.1880e-09|  7.6965e-01|  5.0000e-01|  5.0000e-01|  5.0000e-01|   -5.756199|   -5.859320|   -6.380849|   -6.095213|   -6.011950|   -8.587702|    2.042414|
|         262|  5.7613e+00|  6.1880e-09|  7.6965e-01|  5.0000e-01|  5.0000e-01|  5.0000e-01|   -5.756483|   -5.859712|   -6.380925|   -6.095785|   -6.012345|   -8.585680|    2.042442|
|         263|  5.7609e+00|  6.1880e-09|  7.6965e-01|  5.0000e-01|  5.0000e-01|  5.0000e-01|   -5.756759|   -5.860096|   -6.380997|   -6.096353|   -6.012733|   -8.583606|    2.042470|
|         264|  5.7607e+00|  6.1881e-09|  7.6965e-01|  5.0000e-01|  5.0000e-01|  5.0000e-01|   -5.757027|   -5.860471|   -6.381067|   -6.096916|   -6.013116|   -8.581483|    2.042498|
|         265|  5.7604e+00|  6.1881e-09|  7.6965e-01|  5.0000e-01|  5.0000e-01|  5.0000e-01|   -5.757286|   -5.860838|   -6.381133|   -6.097473|   -6.013493|   -8.579311|    2.042526|
|         266|  5.7602e+00|  6.1881e-09|  7.6965e-01|  5.0000e-01|  5.0000e-01|  5.0000e-01|   -5.757537|   -5.861196|   -6.381196|   -6.098025|   -6.013864|   -8.577092|    2.042555|
|         267|  5.7600e+00|  6.1881e-09|  7.6965e-01|  5.0000e-01|  5.0000e-01|  5.0000e-01|   -5.757780|   -5.861545|   -6.381255|   -6.098571|   -6.014229|   -8.574828|    2.042583|
|         268|  5.7600e+00|  6.1881e-09|  7.6965e-01|  5.0000e-01|  5.0000e-01|  5.0000e-01|   -5.758014|   -5.861886|   -6.381311|   -6.099112|   -6.014588|   -8.572521|    2.042612|
|         269|  5.7597e+00|  6.1881e-09|  7.6965e-01|  5.0000e-01|  5.0000e-01|  5.0000e-01|   -5.758240|   -5.862218|   -6.381364|   -6.099646|   -6.014941|   -8.570172|    2.042641|
|         270|  5.7595e+00|  6.1881e-09|  7.6965e-01|  5.0000e-01|  5.0000e-01|  5.0000e-01|   -5.758457|   -5.862540|   -6.381413|   -6.100175|   -6.015288|   -8.567783|    2.042670|
|         271|  5.7592e+00|  6.1881e-09|  7.6965e-01|  5.0000e-01|  5.0000e-01|  5.0000e-01|   -5.758666|   -5.862854|   -6.381458|   -6.100699|   -6.015628|   -8.565356|    2.042699|
|         272|  5.7590e+00|  6.1881e-09|  7.6965e-01|  5.0000e-01|  5.0000e-01|  5.0000e-01|   -5.758865|   -5.863159|   -6.381500|   -6.101216|   -6.015962|   -8.562892|    2.042728|
|         273|  5.7587e+00|  6.1882e-09|  7.6965e-01|  5.0000e-01|  5.0000e-01|  5.0000e-01|   -5.759057|   -5.863454|   -6.381539|   -6.101728|   -6.016289|   -8.560394|    2.042757|
|         274|  5.7588e+00|  6.1882e-09|  7.6965e-01|  5.0000e-01|  5.0000e-01|  5.0000e-01|   -5.759239|   -5.863741|   -6.381574|   -6.102234|   -6.016611|   -8.557862|    2.042787|
|         275|  5.7589e+00|  6.1882e-09|  7.6965e-01|  5.0000e-01|  5.0000e-01|  5.0000e-01|   -5.759414|   -5.864018|   -6.381606|   -6.102735|   -6.016926|   -8.555299|    2.042817|
|         276|  5.7587e+00|  6.1882e-09|  7.6965e-01|  5.0000e-01|  5.0000e-01|  5.0000e-01|   -5.759580|   -5.864287|   -6.381635|   -6.103230|   -6.017236|   -8.552706|    2.042846|
|         277|  5.7583e+00|  6.1882e-09|  7.6965e-01|  5.0000e-01|  5.0000e-01|  5.0000e-01|   -5.759738|   -5.864546|   -6.381661|   -6.103718|   -6.017538|   -8.550085|    2.042876|
|         278|  5.7582e+00|  6.1882e-09|  7.6965e-01|  5.0000e-01|  5.0000e-01|  5.0000e-01|   -5.759886|   -5.864796|   -6.381684|   -6.104200|   -6.017835|   -8.547437|    2.042906|
|         279|  5.7583e+00|  6.1882e-09|  7.6965e-01|  5.0000e-01|  5.0000e-01|  5.0000e-01|   -5.760026|   -5.865037|   -6.381703|   -6.104675|   -6.018125|   -8.544764|    2.042936|
|         280|  5.7584e+00|  6.1883e-09|  7.6965e-01|  5.0000e-01|  5.0000e-01|  5.0000e-01|   -5.760157|   -5.865268|   -6.381720|   -6.105145|   -6.018408|   -8.542068|    2.042967|
|         281|  5.7581e+00|  6.1883e-09|  7.6965e-01|  5.0000e-01|  5.0000e-01|  5.0000e-01|   -5.760279|   -5.865490|   -6.381733|   -6.105608|   -6.018685|   -8.539349|    2.042997|
|         282|  5.7580e+00|  6.1883e-09|  7.6965e-01|  5.0000e-01|  5.0000e-01|  5.0000e-01|   -5.760391|   -5.865702|   -6.381743|   -6.106066|   -6.018954|   -8.536610|    2.043028|
|         283|  5.7578e+00|  6.1883e-09|  7.6965e-01|  5.0000e-01|  5.0000e-01|  5.0000e-01|   -5.760495|   -5.865904|   -6.381749|   -6.106517|   -6.019217|   -8.533853|    2.043058|
|         284|  5.7576e+00|  6.1883e-09|  7.6965e-01|  5.0000e-01|  5.0000e-01|  5.0000e-01|   -5.760590|   -5.866097|   -6.381754|   -6.106961|   -6.019473|   -8.531077|    2.043089|
|         285|  5.7576e+00|  6.1883e-09|  7.6965e-01|  5.0000e-01|  5.0000e-01|  5.0000e-01|   -5.760676|   -5.866281|   -6.381755|   -6.107400|   -6.019723|   -8.528285|    2.043120|
|         286|  5.7574e+00|  6.1883e-09|  7.6965e-01|  5.0000e-01|  5.0000e-01|  5.0000e-01|   -5.760755|   -5.866455|   -6.381755|   -6.107831|   -6.019967|   -8.525478|    2.043151|
|         287|  5.7571e+00|  6.1884e-09|  7.6965e-01|  5.0000e-01|  5.0000e-01|  5.0000e-01|   -5.760824|   -5.866620|   -6.381751|   -6.108256|   -6.020204|   -8.522658|    2.043182|
|         288|  5.7568e+00|  6.1884e-09|  7.6965e-01|  5.0000e-01|  5.0000e-01|  5.0000e-01|   -5.760885|   -5.866776|   -6.381744|   -6.108674|   -6.020434|   -8.519825|    2.043213|
|         289|  5.7565e+00|  6.1884e-09|  7.6965e-01|  5.0000e-01|  5.0000e-01|  5.0000e-01|   -5.760938|   -5.866922|   -6.381734|   -6.109085|   -6.020658|   -8.516981|    2.043245|
|         290|  5.7567e+00|  6.1884e-09|  7.6965e-01|  5.0000e-01|  5.0000e-01|  5.0000e-01|   -5.760982|   -5.867059|   -6.381721|   -6.109490|   -6.020876|   -8.514128|    2.043276|
|         291|  5.7566e+00|  6.1884e-09|  7.6965e-01|  5.0000e-01|  5.0000e-01|  5.0000e-01|   -5.761017|   -5.867186|   -6.381706|   -6.109887|   -6.021086|   -8.511266|    2.043308|
|         292|  5.7567e+00|  6.1884e-09|  7.6965e-01|  5.0000e-01|  5.0000e-01|  5.0000e-01|   -5.761044|   -5.867304|   -6.381687|   -6.110278|   -6.021290|   -8.508396|    2.043339|
|         293|  5.7567e+00|  6.1885e-09|  7.6965e-01|  5.0000e-01|  5.0000e-01|  5.0000e-01|   -5.761062|   -5.867413|   -6.381665|   -6.110661|   -6.021487|   -8.505520|    2.043371|
|         294|  5.7564e+00|  6.1885e-09|  7.6965e-01|  5.0000e-01|  5.0000e-01|  5.0000e-01|   -5.761071|   -5.867511|   -6.381641|   -6.111036|   -6.021678|   -8.502640|    2.043403|
|         295|  5.7564e+00|  6.1885e-09|  7.6965e-01|  5.0000e-01|  5.0000e-01|  5.0000e-01|   -5.761072|   -5.867601|   -6.381613|   -6.111405|   -6.021861|   -8.499755|    2.043435|
|         296|  5.7562e+00|  6.1885e-09|  7.6965e-01|  5.0000e-01|  5.0000e-01|  5.0000e-01|   -5.761064|   -5.867681|   -6.381583|   -6.111766|   -6.022037|   -8.496867|    2.043468|
|         297|  5.7559e+00|  6.1885e-09|  7.6965e-01|  5.0000e-01|  5.0000e-01|  5.0000e-01|   -5.761048|   -5.867751|   -6.381550|   -6.112120|   -6.022207|   -8.493976|    2.043500|
|         298|  5.7557e+00|  6.1886e-09|  7.6965e-01|  5.0000e-01|  5.0000e-01|  5.0000e-01|   -5.761023|   -5.867812|   -6.381515|   -6.112467|   -6.022370|   -8.491085|    2.043532|
|         299|  5.7554e+00|  6.1886e-09|  7.6965e-01|  5.0000e-01|  5.0000e-01|  5.0000e-01|   -5.760990|   -5.867863|   -6.381477|   -6.112806|   -6.022526|   -8.488195|    2.043565|
|         300|  5.7550e+00|  6.1886e-09|  7.6965e-01|  5.0000e-01|  5.0000e-01|  5.0000e-01|   -5.760949|   -5.867905|   -6.381437|   -6.113139|   -6.022676|   -8.485306|    2.043598|
+-----------------------------------------------------------------------+
|        File Writing Summary       |              Filename             |
+-----------------------------------------------------------------------+
|SU2 binary restart                 |restart_flow.dat                   |
|Paraview                           |flow.vtu                           |
|Paraview surface                   |surface_flow.vtu                   |
+-----------------------------------------------------------------------+
+-------------------------------------------------------------------------------------------------------------------------------------------------------------------------------------+
|  Inner_Iter|   Time(sec)|      Min DT|      Max DT|     Min CFL|     Max CFL|     Avg CFL|    rms[Rho]|   rms[RhoU]|   rms[RhoV]|   rms[RhoW]|   rms[RhoE]|     rms[nu]|          CD|
+-------------------------------------------------------------------------------------------------------------------------------------------------------------------------------------+
|         301|  5.8380e+00|  6.1886e-09|  7.6965e-01|  5.0000e-01|  5.0000e-01|  5.0000e-01|   -5.760899|   -5.867938|   -6.381393|   -6.113463|   -6.022818|   -8.482418|    2.043631|
|         302|  5.8380e+00|  6.1886e-09|  7.6965e-01|  5.0000e-01|  5.0000e-01|  5.0000e-01|   -5.760840|   -5.867962|   -6.381348|   -6.113780|   -6.022954|   -8.479532|    2.043663|
|         303|  5.8376e+00|  6.1886e-09|  7.6965e-01|  5.0000e-01|  5.0000e-01|  5.0000e-01|   -5.760774|   -5.867975|   -6.381299|   -6.114089|   -6.023082|   -8.476648|    2.043697|
|         304|  5.8371e+00|  6.1887e-09|  7.6965e-01|  5.0000e-01|  5.0000e-01|  5.0000e-01|   -5.760698|   -5.867980|   -6.381248|   -6.114391|   -6.023204|   -8.473769|    2.043730|
|         305|  5.8369e+00|  6.1887e-09|  7.6965e-01|  5.0000e-01|  5.0000e-01|  5.0000e-01|   -5.760614|   -5.867975|   -6.381193|   -6.114685|   -6.023319|   -8.470894|    2.043763|
|         306|  5.8369e+00|  6.1887e-09|  7.6965e-01|  5.0000e-01|  5.0000e-01|  5.0000e-01|   -5.760522|   -5.867960|   -6.381137|   -6.114971|   -6.023426|   -8.468025|    2.043796|
|         307|  5.8365e+00|  6.1887e-09|  7.6965e-01|  5.0000e-01|  5.0000e-01|  5.0000e-01|   -5.760421|   -5.867936|   -6.381077|   -6.115249|   -6.023527|   -8.465161|    2.043830|
|         308|  5.8359e+00|  6.1887e-09|  7.6965e-01|  5.0000e-01|  5.0000e-01|  5.0000e-01|   -5.760311|   -5.867902|   -6.381016|   -6.115519|   -6.023619|   -8.462304|    2.043864|
|         309|  5.8355e+00|  6.1888e-09|  7.6965e-01|  5.0000e-01|  5.0000e-01|  5.0000e-01|   -5.760192|   -5.867859|   -6.380953|   -6.115782|   -6.023705|   -8.459454|    2.043897|
|         310|  5.8350e+00|  6.1888e-09|  7.6965e-01|  5.0000e-01|  5.0000e-01|  5.0000e-01|   -5.760066|   -5.867807|   -6.380887|   -6.116037|   -6.023785|   -8.456612|    2.043931|
|         311|  5.8346e+00|  6.1888e-09|  7.6965e-01|  5.0000e-01|  5.0000e-01|  5.0000e-01|   -5.759932|   -5.867745|   -6.380818|   -6.116284|   -6.023857|   -8.453778|    2.043965|
|         312|  5.8343e+00|  6.1888e-09|  7.6965e-01|  5.0000e-01|  5.0000e-01|  5.0000e-01|   -5.759790|   -5.867674|   -6.380747|   -6.116524|   -6.023923|   -8.450954|    2.043999|
|         313|  5.8340e+00|  6.1888e-09|  7.6965e-01|  5.0000e-01|  5.0000e-01|  5.0000e-01|   -5.759640|   -5.867593|   -6.380673|   -6.116756|   -6.023982|   -8.448139|    2.044033|
|         314|  5.8334e+00|  6.1889e-09|  7.6965e-01|  5.0000e-01|  5.0000e-01|  5.0000e-01|   -5.759482|   -5.867504|   -6.380597|   -6.116980|   -6.024034|   -8.445334|    2.044068|
|         315|  5.8329e+00|  6.1889e-09|  7.6965e-01|  5.0000e-01|  5.0000e-01|  5.0000e-01|   -5.759317|   -5.867406|   -6.380519|   -6.117197|   -6.024080|   -8.442539|    2.044102|
|         316|  5.8327e+00|  6.1889e-09|  7.6965e-01|  5.0000e-01|  5.0000e-01|  5.0000e-01|   -5.759144|   -5.867298|   -6.380439|   -6.117406|   -6.024120|   -8.439756|    2.044137|
|         317|  5.8321e+00|  6.1889e-09|  7.6965e-01|  5.0000e-01|  5.0000e-01|  5.0000e-01|   -5.758964|   -5.867182|   -6.380356|   -6.117608|   -6.024153|   -8.436984|    2.044171|
|         318|  5.8314e+00|  6.1890e-09|  7.6965e-01|  5.0000e-01|  5.0000e-01|  5.0000e-01|   -5.758777|   -5.867056|   -6.380270|   -6.117802|   -6.024179|   -8.434223|    2.044206|
|         319|  5.8309e+00|  6.1890e-09|  7.6965e-01|  5.0000e-01|  5.0000e-01|  5.0000e-01|   -5.758582|   -5.866922|   -6.380182|   -6.117988|   -6.024199|   -8.431476|    2.044241|
|         320|  5.8303e+00|  6.1890e-09|  7.6965e-01|  5.0000e-01|  5.0000e-01|  5.0000e-01|   -5.758379|   -5.866779|   -6.380090|   -6.118166|   -6.024212|   -8.428740|    2.044276|
|         321|  5.8299e+00|  6.1890e-09|  7.6965e-01|  5.0000e-01|  5.0000e-01|  5.0000e-01|   -5.758169|   -5.866628|   -6.379996|   -6.118338|   -6.024219|   -8.426018|    2.044311|
|         322|  5.8293e+00|  6.1890e-09|  7.6965e-01|  5.0000e-01|  5.0000e-01|  5.0000e-01|   -5.757952|   -5.866467|   -6.379900|   -6.118501|   -6.024219|   -8.423310|    2.044346|
|         323|  5.8287e+00|  6.1891e-09|  7.6965e-01|  5.0000e-01|  5.0000e-01|  5.0000e-01|   -5.757728|   -5.866299|   -6.379801|   -6.118657|   -6.024213|   -8.420614|    2.044381|
|         324|  5.8283e+00|  6.1891e-09|  7.6965e-01|  5.0000e-01|  5.0000e-01|  5.0000e-01|   -5.757496|   -5.866121|   -6.379700|   -6.118806|   -6.024200|   -8.417933|    2.044417|
|         325|  5.8277e+00|  6.1891e-09|  7.6965e-01|  5.0000e-01|  5.0000e-01|  5.0000e-01|   -5.757257|   -5.865935|   -6.379597|   -6.118946|   -6.024181|   -8.415267|    2.044452|
|         326|  5.8268e+00|  6.1891e-09|  7.6965e-01|  5.0000e-01|  5.0000e-01|  5.0000e-01|   -5.757010|   -5.865740|   -6.379491|   -6.119078|   -6.024154|   -8.412614|    2.044488|
|         327|  5.8263e+00|  6.1892e-09|  7.6965e-01|  5.0000e-01|  5.0000e-01|  5.0000e-01|   -5.756756|   -5.865537|   -6.379382|   -6.119202|   -6.024121|   -8.409977|    2.044523|
|         328|  5.8257e+00|  6.1892e-09|  7.6965e-01|  5.0000e-01|  5.0000e-01|  5.0000e-01|   -5.756493|   -5.865324|   -6.379271|   -6.119318|   -6.024080|   -8.407355|    2.044559|
|         329|  5.8250e+00|  6.1892e-09|  7.6965e-01|  5.0000e-01|  5.0000e-01|  5.0000e-01|   -5.756224|   -5.865104|   -6.379157|   -6.119427|   -6.024033|   -8.404748|    2.044595|
|         330|  5.8244e+00|  6.1892e-09|  7.6965e-01|  5.0000e-01|  5.0000e-01|  5.0000e-01|   -5.755950|   -5.864879|   -6.379045|   -6.119536|   -6.023986|   -8.402156|    2.044631|
|         331|  5.8238e+00|  6.1893e-09|  7.6965e-01|  5.0000e-01|  5.0000e-01|  5.0000e-01|   -5.755669|   -5.864645|   -6.378930|   -6.119637|   -6.023931|   -8.399581|    2.044667|
|         332|  5.8232e+00|  6.1893e-09|  7.6965e-01|  5.0000e-01|  5.0000e-01|  5.0000e-01|   -5.755380|   -5.864403|   -6.378814|   -6.119729|   -6.023869|   -8.397021|    2.044703|
|         333|  5.8228e+00|  6.1893e-09|  7.6965e-01|  5.0000e-01|  5.0000e-01|  5.0000e-01|   -5.755084|   -5.864152|   -6.378695|   -6.119813|   -6.023800|   -8.394477|    2.044740|
|         334|  5.8225e+00|  6.1893e-09|  7.6965e-01|  5.0000e-01|  5.0000e-01|  5.0000e-01|   -5.754780|   -5.863893|   -6.378574|   -6.119888|   -6.023723|   -8.391949|    2.044776|
|         335|  5.8219e+00|  6.1894e-09|  7.6965e-01|  5.0000e-01|  5.0000e-01|  5.0000e-01|   -5.754468|   -5.863625|   -6.378450|   -6.119955|   -6.023640|   -8.389438|    2.044813|
|         336|  5.8210e+00|  6.1894e-09|  7.6965e-01|  5.0000e-01|  5.0000e-01|  5.0000e-01|   -5.754150|   -5.863348|   -6.378324|   -6.120014|   -6.023549|   -8.386944|    2.044849|
|         337|  5.8200e+00|  6.1894e-09|  7.6965e-01|  5.0000e-01|  5.0000e-01|  5.0000e-01|   -5.753824|   -5.863063|   -6.378194|   -6.120064|   -6.023451|   -8.384466|    2.044886|
|         338|  5.8194e+00|  6.1894e-09|  7.6965e-01|  5.0000e-01|  5.0000e-01|  5.0000e-01|   -5.753490|   -5.862770|   -6.378063|   -6.120106|   -6.023346|   -8.382004|    2.044923|
|         339|  5.8189e+00|  6.1895e-09|  7.6965e-01|  5.0000e-01|  5.0000e-01|  5.0000e-01|   -5.753150|   -5.862468|   -6.377929|   -6.120139|   -6.023233|   -8.379560|    2.044960|
|         340|  5.8181e+00|  6.1895e-09|  7.6965e-01|  5.0000e-01|  5.0000e-01|  5.0000e-01|   -5.752801|   -5.862158|   -6.377792|   -6.120164|   -6.023114|   -8.377133|    2.044997|
|         341|  5.8174e+00|  6.1895e-09|  7.6965e-01|  5.0000e-01|  5.0000e-01|  5.0000e-01|   -5.752446|   -5.861840|   -6.377653|   -6.120181|   -6.022987|   -8.374723|    2.045034|
|         342|  5.8168e+00|  6.1895e-09|  7.6965e-01|  5.0000e-01|  5.0000e-01|  5.0000e-01|   -5.752084|   -5.861514|   -6.377512|   -6.120190|   -6.022854|   -8.372330|    2.045071|
|         343|  5.8163e+00|  6.1896e-09|  7.6965e-01|  5.0000e-01|  5.0000e-01|  5.0000e-01|   -5.751716|   -5.861180|   -6.377368|   -6.120191|   -6.022714|   -8.369954|    2.045108|
|         344|  5.8159e+00|  6.1896e-09|  7.6965e-01|  5.0000e-01|  5.0000e-01|  5.0000e-01|   -5.751340|   -5.860838|   -6.377222|   -6.120183|   -6.022567|   -8.367596|    2.045146|
|         345|  5.8153e+00|  6.1896e-09|  7.6965e-01|  5.0000e-01|  5.0000e-01|  5.0000e-01|   -5.750958|   -5.860489|   -6.377074|   -6.120168|   -6.022414|   -8.365255|    2.045183|
|         346|  5.8146e+00|  6.1896e-09|  7.6965e-01|  5.0000e-01|  5.0000e-01|  5.0000e-01|   -5.750570|   -5.860131|   -6.376923|   -6.120144|   -6.022254|   -8.362932|    2.045221|
|         347|  5.8141e+00|  6.1897e-09|  7.6965e-01|  5.0000e-01|  5.0000e-01|  5.0000e-01|   -5.750174|   -5.859766|   -6.376770|   -6.120112|   -6.022087|   -8.360626|    2.045259|
|         348|  5.8136e+00|  6.1897e-09|  7.6965e-01|  5.0000e-01|  5.0000e-01|  5.0000e-01|   -5.749772|   -5.859393|   -6.376614|   -6.120072|   -6.021914|   -8.358338|    2.045297|
|         349|  5.8128e+00|  6.1897e-09|  7.6965e-01|  5.0000e-01|  5.0000e-01|  5.0000e-01|   -5.749364|   -5.859013|   -6.376456|   -6.120023|   -6.021734|   -8.356067|    2.045334|
[...]
|       11179|  5.6888e+00|  4.9962e-09|  7.6965e-01|  5.0000e-01|  5.0000e-01|  5.0000e-01|   -5.947279|   -6.069715|   -6.756921|   -6.228642|   -6.236225|   -8.472766|    2.053158|
|       11180|  5.6888e+00|  4.9961e-09|  7.6965e-01|  5.0000e-01|  5.0000e-01|  5.0000e-01|   -5.947683|   -6.070034|   -6.757358|   -6.229022|   -6.236508|   -8.471870|    2.053172|
|       11181|  5.6888e+00|  4.9961e-09|  7.6965e-01|  5.0000e-01|  5.0000e-01|  5.0000e-01|   -5.948094|   -6.070361|   -6.757795|   -6.229409|   -6.236797|   -8.470980|    2.053186|
|       11182|  5.6888e+00|  4.9960e-09|  7.6965e-01|  5.0000e-01|  5.0000e-01|  5.0000e-01|   -5.948511|   -6.070694|   -6.758233|   -6.229801|   -6.237091|   -8.470095|    2.053201|
|       11183|  5.6887e+00|  4.9959e-09|  7.6965e-01|  5.0000e-01|  5.0000e-01|  5.0000e-01|   -5.948935|   -6.071034|   -6.758671|   -6.230198|   -6.237391|   -8.469215|    2.053215|
|       11184|  5.6887e+00|  4.9958e-09|  7.6965e-01|  5.0000e-01|  5.0000e-01|  5.0000e-01|   -5.949365|   -6.071381|   -6.759110|   -6.230599|   -6.237696|   -8.468341|    2.053229|
|       11185|  5.6887e+00|  4.9958e-09|  7.6965e-01|  5.0000e-01|  5.0000e-01|  5.0000e-01|   -5.949800|   -6.071734|   -6.759550|   -6.231005|   -6.238005|   -8.467471|    2.053244|
|       11186|  5.6887e+00|  4.9957e-09|  7.6965e-01|  5.0000e-01|  5.0000e-01|  5.0000e-01|   -5.950242|   -6.072094|   -6.759990|   -6.231417|   -6.238320|   -8.466606|    2.053258|
|       11187|  5.6886e+00|  4.9956e-09|  7.6965e-01|  5.0000e-01|  5.0000e-01|  5.0000e-01|   -5.950691|   -6.072461|   -6.760431|   -6.231833|   -6.238641|   -8.465747|    2.053273|
|       11188|  5.6886e+00|  4.9955e-09|  7.6965e-01|  5.0000e-01|  5.0000e-01|  5.0000e-01|   -5.951146|   -6.072836|   -6.760872|   -6.232256|   -6.238967|   -8.464892|    2.053287|
|       11189|  5.6886e+00|  4.9955e-09|  7.6965e-01|  5.0000e-01|  5.0000e-01|  5.0000e-01|   -5.951608|   -6.073217|   -6.761315|   -6.232683|   -6.239299|   -8.464043|    2.053302|
|       11190|  5.6886e+00|  4.9954e-09|  7.6965e-01|  5.0000e-01|  5.0000e-01|  5.0000e-01|   -5.952076|   -6.073607|   -6.761757|   -6.233117|   -6.239637|   -8.463199|    2.053317|
|       11191|  5.6886e+00|  4.9953e-09|  7.6965e-01|  5.0000e-01|  5.0000e-01|  5.0000e-01|   -5.952552|   -6.074003|   -6.762200|   -6.233555|   -6.239980|   -8.462359|    2.053331|
|       11192|  5.6885e+00|  4.9952e-09|  7.6965e-01|  5.0000e-01|  5.0000e-01|  5.0000e-01|   -5.953033|   -6.074407|   -6.762643|   -6.233999|   -6.240330|   -8.461525|    2.053346|
|       11193|  5.6885e+00|  4.9952e-09|  7.6965e-01|  5.0000e-01|  5.0000e-01|  5.0000e-01|   -5.953522|   -6.074818|   -6.763087|   -6.234449|   -6.240685|   -8.460697|    2.053361|
|       11194|  5.6885e+00|  4.9951e-09|  7.6965e-01|  5.0000e-01|  5.0000e-01|  5.0000e-01|   -5.954017|   -6.075236|   -6.763531|   -6.234904|   -6.241046|   -8.459873|    2.053375|
|       11195|  5.6885e+00|  4.9950e-09|  7.6965e-01|  5.0000e-01|  5.0000e-01|  5.0000e-01|   -5.954519|   -6.075662|   -6.763975|   -6.235365|   -6.241412|   -8.459054|    2.053390|
|       11196|  5.6885e+00|  4.9949e-09|  7.6965e-01|  5.0000e-01|  5.0000e-01|  5.0000e-01|   -5.955028|   -6.076095|   -6.764420|   -6.235831|   -6.241785|   -8.458241|    2.053405|
|       11197|  5.6884e+00|  4.9949e-09|  7.6965e-01|  5.0000e-01|  5.0000e-01|  5.0000e-01|   -5.955544|   -6.076535|   -6.764866|   -6.236303|   -6.242163|   -8.457432|    2.053420|
|       11198|  5.6884e+00|  4.9948e-09|  7.6965e-01|  5.0000e-01|  5.0000e-01|  5.0000e-01|   -5.956066|   -6.076983|   -6.765311|   -6.236780|   -6.242548|   -8.456629|    2.053435|
|       11199|  5.6884e+00|  4.9947e-09|  7.6965e-01|  5.0000e-01|  5.0000e-01|  5.0000e-01|   -5.956594|   -6.077438|   -6.765756|   -6.237262|   -6.242937|   -8.455831|    2.053450|
|       11200|  5.6884e+00|  4.9947e-09|  7.6965e-01|  5.0000e-01|  5.0000e-01|  5.0000e-01|   -5.957130|   -6.077900|   -6.766202|   -6.237749|   -6.243333|   -8.455038|    2.053465|
|       11201|  5.6884e+00|  4.9946e-09|  7.6965e-01|  5.0000e-01|  5.0000e-01|  5.0000e-01|   -5.957672|   -6.078370|   -6.766648|   -6.238242|   -6.243734|   -8.454250|    2.053480|
|       11202|  5.6884e+00|  4.9945e-09|  7.6965e-01|  5.0000e-01|  5.0000e-01|  5.0000e-01|   -5.958221|   -6.078847|   -6.767093|   -6.238740|   -6.244141|   -8.453467|    2.053495|
|       11203|  5.6883e+00|  4.9944e-09|  7.6965e-01|  5.0000e-01|  5.0000e-01|  5.0000e-01|   -5.958776|   -6.079331|   -6.767539|   -6.239243|   -6.244553|   -8.452690|    2.053511|
|       11204|  5.6883e+00|  4.9944e-09|  7.6965e-01|  5.0000e-01|  5.0000e-01|  5.0000e-01|   -5.959338|   -6.079822|   -6.767985|   -6.239752|   -6.244972|   -8.451917|    2.053526|
|       11205|  5.6883e+00|  4.9943e-09|  7.6965e-01|  5.0000e-01|  5.0000e-01|  5.0000e-01|   -5.959907|   -6.080321|   -6.768430|   -6.240266|   -6.245396|   -8.451150|    2.053541|
|       11206|  5.6883e+00|  4.9942e-09|  7.6965e-01|  5.0000e-01|  5.0000e-01|  5.0000e-01|   -5.960482|   -6.080827|   -6.768876|   -6.240785|   -6.245825|   -8.450388|    2.053556|
|       11207|  5.6882e+00|  4.9941e-09|  7.6965e-01|  5.0000e-01|  5.0000e-01|  5.0000e-01|   -5.961064|   -6.081341|   -6.769320|   -6.241309|   -6.246260|   -8.449630|    2.053572|
|       11208|  5.6882e+00|  4.9941e-09|  7.6965e-01|  5.0000e-01|  5.0000e-01|  5.0000e-01|   -5.961652|   -6.081862|   -6.769764|   -6.241838|   -6.246701|   -8.448879|    2.053587|
|       11209|  5.6882e+00|  4.9940e-09|  7.6965e-01|  5.0000e-01|  5.0000e-01|  5.0000e-01|   -5.962247|   -6.082390|   -6.770207|   -6.242373|   -6.247147|   -8.448132|    2.053602|
|       11210|  5.6882e+00|  4.9939e-09|  7.6965e-01|  5.0000e-01|  5.0000e-01|  5.0000e-01|   -5.962848|   -6.082925|   -6.770650|   -6.242912|   -6.247599|   -8.447390|    2.053618|
|       11211|  5.6882e+00|  4.9938e-09|  7.6965e-01|  5.0000e-01|  5.0000e-01|  5.0000e-01|   -5.963456|   -6.083468|   -6.771093|   -6.243457|   -6.248056|   -8.446653|    2.053633|
|       11212|  5.6882e+00|  4.9938e-09|  7.6965e-01|  5.0000e-01|  5.0000e-01|  5.0000e-01|   -5.964070|   -6.084017|   -6.771536|   -6.244006|   -6.248519|   -8.445922|    2.053649|
|       11213|  5.6882e+00|  4.9937e-09|  7.6965e-01|  5.0000e-01|  5.0000e-01|  5.0000e-01|   -5.964690|   -6.084574|   -6.771978|   -6.244561|   -6.248987|   -8.445196|    2.053664|
|       11214|  5.6881e+00|  4.9936e-09|  7.6965e-01|  5.0000e-01|  5.0000e-01|  5.0000e-01|   -5.965318|   -6.085138|   -6.772420|   -6.245120|   -6.249461|   -8.444474|    2.053680|
|       11215|  5.6881e+00|  4.9935e-09|  7.6965e-01|  5.0000e-01|  5.0000e-01|  5.0000e-01|   -5.965952|   -6.085709|   -6.772862|   -6.245685|   -6.249940|   -8.443758|    2.053695|
|       11216|  5.6881e+00|  4.9935e-09|  7.6965e-01|  5.0000e-01|  5.0000e-01|  5.0000e-01|   -5.966592|   -6.086287|   -6.773302|   -6.246255|   -6.250425|   -8.443047|    2.053711|
|       11217|  5.6881e+00|  4.9934e-09|  7.6965e-01|  5.0000e-01|  5.0000e-01|  5.0000e-01|   -5.967238|   -6.086872|   -6.773743|   -6.246830|   -6.250914|   -8.442342|    2.053726|
|       11218|  5.6881e+00|  4.9933e-09|  7.6965e-01|  5.0000e-01|  5.0000e-01|  5.0000e-01|   -5.967890|   -6.087464|   -6.774182|   -6.247409|   -6.251409|   -8.441641|    2.053742|
|       11219|  5.6881e+00|  4.9932e-09|  7.6965e-01|  5.0000e-01|  5.0000e-01|  5.0000e-01|   -5.968549|   -6.088064|   -6.774621|   -6.247993|   -6.251910|   -8.440946|    2.053758|
|       11220|  5.6881e+00|  4.9932e-09|  7.6965e-01|  5.0000e-01|  5.0000e-01|  5.0000e-01|   -5.969213|   -6.088669|   -6.775058|   -6.248582|   -6.252415|   -8.440256|    2.053774|
|       11221|  5.6880e+00|  4.9931e-09|  7.6965e-01|  5.0000e-01|  5.0000e-01|  5.0000e-01|   -5.969884|   -6.089282|   -6.775494|   -6.249176|   -6.252926|   -8.439571|    2.053789|
|       11222|  5.6880e+00|  4.9930e-09|  7.6965e-01|  5.0000e-01|  5.0000e-01|  5.0000e-01|   -5.970562|   -6.089902|   -6.775931|   -6.249776|   -6.253442|   -8.438891|    2.053805|
|       11223|  5.6880e+00|  4.9930e-09|  7.6965e-01|  5.0000e-01|  5.0000e-01|  5.0000e-01|   -5.971246|   -6.090529|   -6.776367|   -6.250380|   -6.253964|   -8.438216|    2.053821|
|       11224|  5.6880e+00|  4.9929e-09|  7.6965e-01|  5.0000e-01|  5.0000e-01|  5.0000e-01|   -5.971937|   -6.091164|   -6.776803|   -6.250990|   -6.254492|   -8.437546|    2.053837|
|       11225|  5.6880e+00|  4.9928e-09|  7.6965e-01|  5.0000e-01|  5.0000e-01|  5.0000e-01|   -5.972634|   -6.091806|   -6.777238|   -6.251605|   -6.255025|   -8.436882|    2.053853|
|       11226|  5.6880e+00|  4.9927e-09|  7.6965e-01|  5.0000e-01|  5.0000e-01|  5.0000e-01|   -5.973338|   -6.092455|   -6.777674|   -6.252225|   -6.255564|   -8.436222|    2.053869|
|       11227|  5.6879e+00|  4.9927e-09|  7.6965e-01|  5.0000e-01|  5.0000e-01|  5.0000e-01|   -5.974048|   -6.093111|   -6.778108|   -6.252849|   -6.256108|   -8.435568|    2.053885|
|       11228|  5.6879e+00|  4.9926e-09|  7.6965e-01|  5.0000e-01|  5.0000e-01|  5.0000e-01|   -5.974764|   -6.093774|   -6.778542|   -6.253479|   -6.256657|   -8.434919|    2.053901|
|       11229|  5.6879e+00|  4.9925e-09|  7.6965e-01|  5.0000e-01|  5.0000e-01|  5.0000e-01|   -5.975487|   -6.094444|   -6.778975|   -6.254113|   -6.257212|   -8.434274|    2.053917|
|       11230|  5.6879e+00|  4.9924e-09|  7.6965e-01|  5.0000e-01|  5.0000e-01|  5.0000e-01|   -5.976216|   -6.095121|   -6.779407|   -6.254752|   -6.257772|   -8.433635|    2.053933|
|       11231|  5.6878e+00|  4.9924e-09|  7.6965e-01|  5.0000e-01|  5.0000e-01|  5.0000e-01|   -5.976951|   -6.095806|   -6.779838|   -6.255396|   -6.258337|   -8.433001|    2.053949|
|       11232|  5.6878e+00|  4.9923e-09|  7.6965e-01|  5.0000e-01|  5.0000e-01|  5.0000e-01|   -5.977692|   -6.096497|   -6.780268|   -6.256045|   -6.258908|   -8.432372|    2.053965|
|       11233|  5.6878e+00|  4.9922e-09|  7.6965e-01|  5.0000e-01|  5.0000e-01|  5.0000e-01|   -5.978440|   -6.097196|   -6.780696|   -6.256698|   -6.259483|   -8.431748|    2.053981|
|       11234|  5.6878e+00|  4.9921e-09|  7.6965e-01|  5.0000e-01|  5.0000e-01|  5.0000e-01|   -5.979194|   -6.097901|   -6.781123|   -6.257355|   -6.260064|   -8.431129|    2.053997|
|       11235|  5.6878e+00|  4.9921e-09|  7.6965e-01|  5.0000e-01|  5.0000e-01|  5.0000e-01|   -5.979954|   -6.098614|   -6.781550|   -6.258018|   -6.260649|   -8.430514|    2.054013|
|       11236|  5.6877e+00|  4.9920e-09|  7.6965e-01|  5.0000e-01|  5.0000e-01|  5.0000e-01|   -5.980720|   -6.099333|   -6.781975|   -6.258684|   -6.261240|   -8.429905|    2.054029|
|       11237|  5.6877e+00|  4.9919e-09|  7.6965e-01|  5.0000e-01|  5.0000e-01|  5.0000e-01|   -5.981493|   -6.100060|   -6.782398|   -6.259356|   -6.261836|   -8.429301|    2.054046|
|       11238|  5.6877e+00|  4.9919e-09|  7.6965e-01|  5.0000e-01|  5.0000e-01|  5.0000e-01|   -5.982271|   -6.100794|   -6.782820|   -6.260032|   -6.262437|   -8.428702|    2.054062|
|       11239|  5.6877e+00|  4.9918e-09|  7.6965e-01|  5.0000e-01|  5.0000e-01|  5.0000e-01|   -5.983056|   -6.101534|   -6.783241|   -6.260712|   -6.263043|   -8.428108|    2.054078|
|       11240|  5.6877e+00|  4.9917e-09|  7.6965e-01|  5.0000e-01|  5.0000e-01|  5.0000e-01|   -5.983846|   -6.102281|   -6.783659|   -6.261396|   -6.263654|   -8.427518|    2.054094|
|       11241|  5.6877e+00|  4.9916e-09|  7.6965e-01|  5.0000e-01|  5.0000e-01|  5.0000e-01|   -5.984642|   -6.103036|   -6.784076|   -6.262085|   -6.264269|   -8.426934|    2.054111|
|       11242|  5.6876e+00|  4.9916e-09|  7.6965e-01|  5.0000e-01|  5.0000e-01|  5.0000e-01|   -5.985444|   -6.103797|   -6.784491|   -6.262778|   -6.264890|   -8.426354|    2.054127|
|       11243|  5.6876e+00|  4.9915e-09|  7.6965e-01|  5.0000e-01|  5.0000e-01|  5.0000e-01|   -5.986252|   -6.104565|   -6.784904|   -6.263475|   -6.265515|   -8.425779|    2.054143|
|       11244|  5.6876e+00|  4.9914e-09|  7.6965e-01|  5.0000e-01|  5.0000e-01|  5.0000e-01|   -5.987066|   -6.105340|   -6.785316|   -6.264176|   -6.266144|   -8.425210|    2.054160|
|       11245|  5.6876e+00|  4.9913e-09|  7.6965e-01|  5.0000e-01|  5.0000e-01|  5.0000e-01|   -5.987886|   -6.106121|   -6.785726|   -6.264881|   -6.266779|   -8.424645|    2.054176|
|       11246|  5.6876e+00|  4.9913e-09|  7.6965e-01|  5.0000e-01|  5.0000e-01|  5.0000e-01|   -5.988711|   -6.106910|   -6.786133|   -6.265590|   -6.267418|   -8.424085|    2.054193|
|       11247|  5.6875e+00|  4.9912e-09|  7.6965e-01|  5.0000e-01|  5.0000e-01|  5.0000e-01|   -5.989542|   -6.107705|   -6.786539|   -6.266303|   -6.268062|   -8.423529|    2.054209|
|       11248|  5.6875e+00|  4.9911e-09|  7.6965e-01|  5.0000e-01|  5.0000e-01|  5.0000e-01|   -5.990379|   -6.108506|   -6.786943|   -6.267020|   -6.268710|   -8.422979|    2.054226|
|       11249|  5.6875e+00|  4.9911e-09|  7.6965e-01|  5.0000e-01|  5.0000e-01|  5.0000e-01|   -5.991221|   -6.109315|   -6.787345|   -6.267741|   -6.269363|   -8.422433|    2.054242|
|       11250|  5.6875e+00|  4.9910e-09|  7.6965e-01|  5.0000e-01|  5.0000e-01|  5.0000e-01|   -5.992070|   -6.110130|   -6.787745|   -6.268466|   -6.270021|   -8.421893|    2.054259|
+-----------------------------------------------------------------------+
|        File Writing Summary       |              Filename             |
+-----------------------------------------------------------------------+
|SU2 binary restart                 |restart_flow.dat                   |
|Paraview                           |flow.vtu                           |
|Paraview surface                   |surface_flow.vtu                   |
+-----------------------------------------------------------------------+
+-------------------------------------------------------------------------------------------------------------------------------------------------------------------------------------+
|  Inner_Iter|   Time(sec)|      Min DT|      Max DT|     Min CFL|     Max CFL|     Avg CFL|    rms[Rho]|   rms[RhoU]|   rms[RhoV]|   rms[RhoW]|   rms[RhoE]|     rms[nu]|          CD|
+-------------------------------------------------------------------------------------------------------------------------------------------------------------------------------------+
|       11251|  5.6894e+00|  4.9909e-09|  7.6965e-01|  5.0000e-01|  5.0000e-01|  5.0000e-01|   -5.992923|   -6.110952|   -6.788143|   -6.269195|   -6.270683|   -8.421357|    2.054275|
|       11252|  5.6894e+00|  4.9908e-09|  7.6965e-01|  5.0000e-01|  5.0000e-01|  5.0000e-01|   -5.993782|   -6.111780|   -6.788538|   -6.269927|   -6.271349|   -8.420826|    2.054292|
|       11253|  5.6894e+00|  4.9908e-09|  7.6965e-01|  5.0000e-01|  5.0000e-01|  5.0000e-01|   -5.994647|   -6.112615|   -6.788931|   -6.270663|   -6.272020|   -8.420299|    2.054308|
|       11254|  5.6894e+00|  4.9907e-09|  7.6965e-01|  5.0000e-01|  5.0000e-01|  5.0000e-01|   -5.995517|   -6.113456|   -6.789322|   -6.271403|   -6.272695|   -8.419778|    2.054325|
|       11255|  5.6894e+00|  4.9906e-09|  7.6965e-01|  5.0000e-01|  5.0000e-01|  5.0000e-01|   -5.996393|   -6.114304|   -6.789709|   -6.272147|   -6.273374|   -8.419261|    2.054341|
|       11256|  5.6894e+00|  4.9905e-09|  7.6965e-01|  5.0000e-01|  5.0000e-01|  5.0000e-01|   -5.997273|   -6.115158|   -6.790095|   -6.272894|   -6.274057|   -8.418749|    2.054358|
|       11257|  5.6894e+00|  4.9905e-09|  7.6965e-01|  5.0000e-01|  5.0000e-01|  5.0000e-01|   -5.998159|   -6.116019|   -6.790478|   -6.273644|   -6.274745|   -8.418242|    2.054375|
|       11258|  5.6893e+00|  4.9904e-09|  7.6965e-01|  5.0000e-01|  5.0000e-01|  5.0000e-01|   -5.999051|   -6.116886|   -6.790858|   -6.274399|   -6.275438|   -8.417739|    2.054391|
|       11259|  5.6893e+00|  4.9903e-09|  7.6965e-01|  5.0000e-01|  5.0000e-01|  5.0000e-01|   -5.999947|   -6.117760|   -6.791236|   -6.275156|   -6.276134|   -8.417242|    2.054408|
|       11260|  5.6893e+00|  4.9903e-09|  7.6965e-01|  5.0000e-01|  5.0000e-01|  5.0000e-01|   -6.000849|   -6.118639|   -6.791612|   -6.275917|   -6.276835|   -8.416749|    2.054425|
|       11261|  5.6893e+00|  4.9902e-09|  7.6965e-01|  5.0000e-01|  5.0000e-01|  5.0000e-01|   -6.001756|   -6.119525|   -6.791985|   -6.276681|   -6.277539|   -8.416260|    2.054441|
|       11262|  5.6893e+00|  4.9901e-09|  7.6965e-01|  5.0000e-01|  5.0000e-01|  5.0000e-01|   -6.002668|   -6.120418|   -6.792355|   -6.277449|   -6.278248|   -8.415777|    2.054458|
|       11263|  5.6893e+00|  4.9900e-09|  7.6965e-01|  5.0000e-01|  5.0000e-01|  5.0000e-01|   -6.003586|   -6.121316|   -6.792723|   -6.278220|   -6.278960|   -8.415298|    2.054475|
|       11264|  5.6893e+00|  4.9900e-09|  7.6965e-01|  5.0000e-01|  5.0000e-01|  5.0000e-01|   -6.004508|   -6.122221|   -6.793089|   -6.278995|   -6.279677|   -8.414824|    2.054492|
|       11265|  5.6892e+00|  4.9899e-09|  7.6965e-01|  5.0000e-01|  5.0000e-01|  5.0000e-01|   -6.005435|   -6.123131|   -6.793451|   -6.279772|   -6.280397|   -8.414355|    2.054508|
|       11266|  5.6892e+00|  4.9898e-09|  7.6965e-01|  5.0000e-01|  5.0000e-01|  5.0000e-01|   -6.006367|   -6.124048|   -6.793811|   -6.280552|   -6.281122|   -8.413890|    2.054525|
|       11267|  5.6892e+00|  4.9897e-09|  7.6965e-01|  5.0000e-01|  5.0000e-01|  5.0000e-01|   -6.007304|   -6.124970|   -6.794169|   -6.281336|   -6.281850|   -8.413430|    2.054542|
|       11268|  5.6892e+00|  4.9897e-09|  7.6965e-01|  5.0000e-01|  5.0000e-01|  5.0000e-01|   -6.008246|   -6.125899|   -6.794523|   -6.282123|   -6.282582|   -8.412975|    2.054559|
|       11269|  5.6892e+00|  4.9896e-09|  7.6965e-01|  5.0000e-01|  5.0000e-01|  5.0000e-01|   -6.009192|   -6.126833|   -6.794875|   -6.282912|   -6.283318|   -8.412524|    2.054576|

scontrol show job 1082964
JobId=1082964 JobName=m6_aoa24
   UserId=anthonyy(3152141) GroupId=anthonyy(3152141) MCS_label=N/A
   Priority=788378 Nice=0 Account=rrg-jphickey QOS=normal
   JobState=COMPLETING Reason=TimeLimit Dependency=(null)
   Requeue=0 Restarts=0 BatchFlag=1 Reboot=0 ExitCode=0:15
   RunTime=18:00:27 TimeLimit=18:00:00 TimeMin=N/A
   SubmitTime=2026-02-28T18:40:37 EligibleTime=2026-02-28T18:40:37
   AccrueTime=2026-02-28T18:40:37
   StartTime=2026-02-28T19:01:47 EndTime=2026-03-01T13:02:14 Deadline=N/A
   SuspendTime=None SecsPreSuspend=0 LastSchedEval=2026-02-28T19:01:47 Scheduler=Main
   Partition=compute AllocNode:Sid=tri-login03:2722539
   ReqNodeList=(null) ExcNodeList=(null)
   NodeList=tri[0045-0046]
   BatchHost=tri0045
   NumNodes=2 NumCPUs=384 NumTasks=128 CPUs/Task=1 ReqB:S:C:T=0:0:*:*
   ReqTRES=cpu=128,mem=1534000M,node=2,billing=128
   AllocTRES=cpu=384,mem=1534000M,node=2,billing=384
   Socks/Node=* NtasksPerN:B:S:C=64:0:*:* CoreSpec=*
   MinCPUsNode=64 MinMemoryNode=0 MinTmpDiskNode=0
   Features=(null) DelayBoot=00:00:00
   OverSubscribe=NO Contiguous=0 Licenses=(null) Network=(null)
   Command=/scratch/anthonyy/reentry/orion/cases/m6_aoa24/run.sh
   WorkDir=/scratch/anthonyy/reentry/orion/cases/m6_aoa24
   Comment=/opt/slurm/bin/sbatch --export=NONE --get-user-env=L run.sh 
   StdErr=/scratch/anthonyy/reentry/orion/cases/m6_aoa24/orion_1082964.err
   StdIn=/dev/null
   StdOut=/scratch/anthonyy/reentry/orion/cases/m6_aoa24/orion_1082964.out
   TresPerTask=cpu=1
   

sacct -j 1082964
JobID           JobName    Account    Elapsed  MaxVMSize     MaxRSS  SystemCPU    UserCPU ExitCode 
------------ ---------- ---------- ---------- ---------- ---------- ---------- ---------- -------- 
1082964        m6_aoa24 rrg-jphic+   18:00:27                         10:36:53 94-14:14:+      0:0 
1082964.bat+      batch rrg-jphic+   18:00:28          0      9924K  00:00.084  00:00.382     0:15 
1082964.ext+     extern rrg-jphic+   18:00:27                         00:00:00   00:00:00      0:0 
1082964.0       SU2_CFD rrg-jphic+   18:00:27          0  10645816K   10:36:53 94-14:14:+     0:15 

