Nodes: tri[0948,0956]
Tasks: 128
NPN:   64

-------------------------------------------------------------------------
|    ___ _   _ ___                                                      |
|   / __| | | |_  )   Release 7.5.1 "Blackbird"                         |
|   \__ \ |_| |/ /                                                      |
|   |___/\___//___|   Suite (Computational Fluid Dynamics Code)         |
|                                                                       |
-------------------------------------------------------------------------
| SU2 Project Website: https://su2code.github.io                        |
|                                                                       |
| The SU2 Project is maintained by the SU2 Foundation                   |
| (http://su2foundation.org)                                            |
-------------------------------------------------------------------------
| Copyright 2012-2023, SU2 Contributors                                 |
|                                                                       |
| SU2 is free software; you can redistribute it and/or                  |
| modify it under the terms of the GNU Lesser General Public            |
| License as published by the Free Software Foundation; either          |
| version 2.1 of the License, or (at your option) any later version.    |
|                                                                       |
| SU2 is distributed in the hope that it will be useful,                |
| but WITHOUT ANY WARRANTY; without even the implied warranty of        |
| MERCHANTABILITY or FITNESS FOR A PARTICULAR PURPOSE. See the GNU      |
| Lesser General Public License for more details.                       |
|                                                                       |
| You should have received a copy of the GNU Lesser General Public      |
| License along with SU2. If not, see <http://www.gnu.org/licenses/>.   |
-------------------------------------------------------------------------

Parsing config file for zone 0

----------------- Physical Case Definition ( Zone 0 ) -------------------
Compressible RANS equations.
Turbulence model: Spalart-Allmaras-noft2
Hybrid RANS/LES: No Hybrid RANS/LES
Mach number: 6.
Angle of attack (AoA): 24 deg, and angle of sideslip (AoS): 0 deg.
Reynolds number: 6.86229e+08. Reference length 5.
Reading and writing binary SU2 native restart files.
Read flow solution from: restart_flow.dat.
Non-Dimensional simulation (V=1.0, Rho=1.0, T=1.0 at the farfield).
The reference area will be computed using y(2D) or z(3D) projection.
The semi-span will be computed using the max y(3D) value.
The reference length is 0.64607 m.
Reference origin for moment evaluation is (0.25, 0, 0).
Surface(s) where the force coefficients are evaluated: ORION_SURFACE.

Input mesh file name: fine.su2

--------------- Space Numerical Integration ( Zone 0 ) ------------------
Jameson-Schmidt-Turkel scheme (2nd order in space) for the flow inviscid terms.
JST viscous coefficients (2nd & 4th): 0.5, 0.02.
The method includes a grid stretching correction (p = 0.3).
Scalar upwind solver for the turbulence model.
First order integration in space.
Average of gradients with correction (viscous flow terms).
Average of gradients with correction (viscous turbulence terms).
Gradient for upwind reconstruction: Green-Gauss.
Gradient for viscous and source terms: Green-Gauss.

--------------- Time Numerical Integration  ( Zone 0 ) ------------------
Local time stepping (steady state simulation).
Euler implicit method for the flow equations.
FGMRES is used for solving the linear system.
Using a ILU(0) preconditioning.
Convergence criteria of the linear solver: 1e-06.
Max number of linear iterations: 100.
CFL adaptation. Factor down: 0.5, factor up: 1.1,
                lower limit: 0.05, upper limit: 0.5,
                acceptable linear residual: 0.001.
Courant-Friedrichs-Lewy number:     0.03
Euler implicit time integration for the turbulence model.

------------------ Convergence Criteria  ( Zone 0 ) ---------------------
Maximum number of solver subiterations: 999999.
Begin convergence monitoring at iteration 5.
Residual minimum value: 1e-8.
Cauchy series min. value: 1e-10.
Number of Cauchy elements: 100.
Begin windowed time average at iteration 0.

-------------------- Output Information ( Zone 0 ) ----------------------
File writing frequency: 
+------------------------------------+
|                     File| Frequency|
+------------------------------------+
|                  RESTART|       150|
|                 PARAVIEW|       150|
|         SURFACE_PARAVIEW|       150|
+------------------------------------+
Writing the convergence history file every 1 inner iterations.
Writing the screen convergence history every 1 inner iterations.
The tabular file format is CSV (.csv).
Convergence history file name: history.
Forces breakdown file name: forces_breakdown.dat.
Surface file name: surface_flow.
Volume file name: flow.
Restart file name: restart_flow.

------------- Config File Boundary Information ( Zone 0 ) ---------------
+-----------------------------------------------------------------------+
|                        Marker Type|                        Marker Name|
+-----------------------------------------------------------------------+
|                          Far-field|                           FARFIELD|
+-----------------------------------------------------------------------+
|                     Heat flux wall|                      ORION_SURFACE|
+-----------------------------------------------------------------------+

-------------------- Output Preprocessing ( Zone 0 ) --------------------

WARNING: SURFACE_PRESSURE_DROP can only be computed for at least 2 surfaces (outlet, inlet, ...)

Screen output fields: INNER_ITER, WALL_TIME, MIN_DELTA_TIME, MAX_DELTA_TIME, MIN_CFL, MAX_CFL, AVG_CFL, RMS_DENSITY, RMS_MOMENTUM-X, RMS_MOMENTUM-Y, RMS_MOMENTUM-Z, RMS_ENERGY, RMS_NU_TILDE, DRAG
History output group(s): ITER, RMS_RES
Convergence field(s): RMS_DENSITY
Warning: No (valid) fields chosen for time convergence monitoring. Time convergence monitoring inactive.
Volume output fields: MACH, PRESSURE, TEMPERATURE, DENSITY, HEAT_FLUX, Y_PLUS, COORDINATES, SOLUTION

------------------- Geometry Preprocessing ( Zone 0 ) -------------------
Three dimensional problem.
62211324 grid points before partitioning.
190879888 volume elements before partitioning.
2 surface markers.
4104 boundary elements in index 0 (Marker = FARFIELD).
1824836 boundary elements in index 1 (Marker = ORION_SURFACE).
Executing the partitioning functions.
Building the graph adjacency structure.
Calling ParMETIS... graph partitioning complete (4959327 edge cuts).
Distributing ParMETIS coloring.
Rebalancing vertices.
Rebalancing volume element connectivity.
Rebalancing markers and surface elements.
66952290 vertices including ghost points. 
197997438 interior elements including halo cells. 
103171259 tetrahedra.
94500655 prisms.
325524 pyramids.
Establishing MPI communication patterns.
Setting point connectivity.
Renumbering points (Reverse Cuthill McKee Ordering).
Recomputing point connectivity.
Setting element connectivity.
Checking the numerical grid orientation.
All volume elements are correctly orientend.
All surface elements are correctly orientend.
Identifying edges and vertices.
Setting the control volume structure.
Volume of the computational grid: 535693.
Searching for the closest normal neighbors to the surfaces.
Storing a mapping from global to local point index.
Compute the surface curvature.
Max K: 132.896. Mean K: 3.9104. Standard deviation K: 7.49569.
Checking for periodicity.
Computing mesh quality statistics for the dual control volumes.
+--------------------------------------------------------------+
|           Mesh Quality Metric|        Minimum|        Maximum|
+--------------------------------------------------------------+
|    Orthogonality Angle (deg.)|        53.0661|             90|
|     CV Face Area Aspect Ratio|        1.01143|        75298.5|
|           CV Sub-Volume Ratio|        1.00029|        45.0258|
+--------------------------------------------------------------+
Finding max control volume width.
Communicating number of neighbors.
Reference area = 11.531 m^2.
Semi-span length = 2.49999 m.
Wetted area = 57.9072 m^2.
Area projection in the x-plane = 19.6343 m^2, y-plane = 11.531 m^2, z-plane = 11.531 m^2.
Max. coordinate in the x-direction = 2.575 m, y-direction = 2.49999 m, z-direction = 2.49999 m.
Min. coordinate in the x-direction = -0.71 m, y-direction = -2.49999 m, z-direction = -2.5 m.
Computing wall distances.

-------------------- Solver Preprocessing ( Zone 0 ) --------------------
Viscous flow: Computing pressure using the ideal gas law
based on the free-stream temperature and a density computed
from the Reynolds number.
Force coefficients computed using free-stream values.

-- Models:
+------------------------------------------------------------------------------+
|          Viscosity Model|        Conductivity Model|              Fluid Model|
+------------------------------------------------------------------------------+
|               SUTHERLAND|          CONSTANT_PRANDTL|             STANDARD_AIR|
+------------------------------------------------------------------------------+
-- Fluid properties:
+------------------------------------------------------------------------------+
|                  Name|    Dim. value|    Ref. value|      Unit|Non-dim. value|
+------------------------------------------------------------------------------+
|        Ref. Viscosity|     1.716e-05|       2455.73|   N.s/m^2|   6.98773e-09|
|      Sutherland Temp.|        273.15|        288.15|         K|      0.947944|
|     Sutherland Const.|         110.4|        288.15|         K|      0.383134|
+------------------------------------------------------------------------------+
|        Prandtl (Lam.)|             -|             -|         -|          0.72|
|       Prandtl (Turb.)|             -|             -|         -|           0.9|
+------------------------------------------------------------------------------+
|          Gas Constant|       287.058|       14467.7|  N.m/kg.K|     0.0198413|
|      Spec. Heat Ratio|             -|             -|         -|           1.4|
+------------------------------------------------------------------------------+
-- Initial and free-stream conditions:
+------------------------------------------------------------------------------+
|                  Name|    Dim. value|    Ref. value|      Unit|Non-dim. value|
+------------------------------------------------------------------------------+
|       Static Pressure|       99485.6|   5.01407e+06|        Pa|     0.0198413|
|               Density|       1.20274|       1.20274|    kg/m^3|             1|
|           Temperature|        288.15|        288.15|         K|             1|
|          Total Energy|   2.29123e+06|   4.16887e+06|   m^2/s^2|      0.549603|
|            Velocity-X|       1865.26|       2041.78|       m/s|      0.913545|
|            Velocity-Y|             0|       2041.78|       m/s|             0|
|            Velocity-Z|       830.468|       2041.78|       m/s|      0.406737|
|    Velocity Magnitude|       2041.78|       2041.78|       m/s|             1|
+------------------------------------------------------------------------------+
|             Viscosity|    1.7893e-05|       2455.73|   N.s/m^2|    7.2862e-09|
|          Conductivity|             -|   3.55289e+07|   W/m^2.K|             -|
|     Turb. Kin. Energy|       15633.3|   4.16887e+06|   m^2/s^2|       0.00375|
|     Spec. Dissipation|   1.05085e+08|       2041.78|       1/s|       51467.1|
+------------------------------------------------------------------------------+
|           Mach Number|             -|             -|         -|             6|
|       Reynolds Number|             -|             -|         -|   6.86229e+08|
+------------------------------------------------------------------------------+
Initialize Jacobian structure (Navier-Stokes). MG level: 0.
Initialize Jacobian structure (SA model).

------------------- Numerics Preprocessing ( Zone 0 ) -------------------

----------------- Integration Preprocessing ( Zone 0 ) ------------------

------------------- Iteration Preprocessing ( Zone 0 ) ------------------
Euler/Navier-Stokes/RANS fluid iteration.

------------------------------ Begin Solver -----------------------------

Simulation Run using the Single-zone Driver
WARNING: SU2 was not compiled for an AVX-capable architecture. Performance could be better,
         see https://su2code.github.io/docs_v7/Build-SU2-Linux-MacOS/#compiler-optimizations
+-------------------------------------------------------------------------------------------------------------------------------------------------------------------------------------+
|  Inner_Iter|   Time(sec)|      Min DT|      Max DT|     Min CFL|     Max CFL|     Avg CFL|    rms[Rho]|   rms[RhoU]|   rms[RhoV]|   rms[RhoW]|   rms[RhoE]|     rms[nu]|          CD|
+-------------------------------------------------------------------------------------------------------------------------------------------------------------------------------------+
|           0|  6.6871e+00|  2.9945e-10|  4.6179e-02|  5.0000e-02|  5.0000e-02|  5.0000e-02|   -5.992923|   -6.110952|   -6.788143|   -6.269195|   -6.270683|   -8.422142|    2.054259|
|           1|  5.7953e+00|  4.9909e-10|  7.6965e-02|  5.5000e-02|  5.5000e-02|  5.5000e-02|   -5.993010|   -6.111028|   -6.788223|   -6.269280|   -6.270779|   -8.422075|    2.054261|
|           2|  5.5018e+00|  5.4900e-10|  8.4662e-02|  6.0500e-02|  6.0500e-02|  6.0500e-02|   -5.993152|   -6.111154|   -6.788350|   -6.269419|   -6.270935|   -8.422011|    2.054263|
|           3|  5.3015e+00|  6.0390e-10|  9.3128e-02|  6.6550e-02|  6.6550e-02|  6.6550e-02|   -5.993307|   -6.111292|   -6.788488|   -6.269570|   -6.271105|   -8.421941|    2.054265|
|           4|  5.1672e+00|  6.6429e-10|  1.0244e-01|  7.3205e-02|  7.3205e-02|  7.3205e-02|   -5.993477|   -6.111443|   -6.788636|   -6.269735|   -6.271290|   -8.421864|    2.054267|
|           5|  5.0890e+00|  7.3071e-10|  1.1268e-01|  8.0526e-02|  8.0526e-02|  8.0526e-02|   -5.993663|   -6.111609|   -6.788797|   -6.269915|   -6.271492|   -8.421780|    2.054270|
|           6|  5.0266e+00|  8.0378e-10|  1.2395e-01|  8.8578e-02|  8.8578e-02|  8.8578e-02|   -5.993865|   -6.111791|   -6.788969|   -6.270110|   -6.271712|   -8.421687|    2.054272|
|           7|  4.9749e+00|  8.8416e-10|  1.3635e-01|  9.7436e-02|  9.7436e-02|  9.7436e-02|   -5.994087|   -6.111991|   -6.789155|   -6.270323|   -6.271950|   -8.421585|    2.054275|
|           8|  4.9337e+00|  9.7257e-10|  1.4998e-01|  1.0718e-01|  1.0718e-01|  1.0718e-01|   -5.994328|   -6.112210|   -6.789353|   -6.270554|   -6.272210|   -8.421473|    2.054278|
|           9|  4.9007e+00|  1.0698e-09|  1.6498e-01|  1.1790e-01|  1.1790e-01|  1.1790e-01|   -5.994592|   -6.112450|   -6.789565|   -6.270805|   -6.272491|   -8.421350|    2.054282|
|          10|  4.8766e+00|  1.1768e-09|  1.8148e-01|  1.2969e-01|  1.2969e-01|  1.2969e-01|   -5.994879|   -6.112713|   -6.789790|   -6.271077|   -6.272795|   -8.421215|    2.054286|
|          11|  4.8553e+00|  1.2945e-09|  1.9963e-01|  1.4266e-01|  1.4266e-01|  1.4266e-01|   -5.995192|   -6.113000|   -6.790030|   -6.271371|   -6.273125|   -8.421067|    2.054290|
|          12|  4.8371e+00|  1.4239e-09|  2.1959e-01|  1.5692e-01|  1.5692e-01|  1.5692e-01|   -5.995532|   -6.113314|   -6.790283|   -6.271689|   -6.273480|   -8.420905|    2.054295|
|          13|  4.8566e+00|  1.5663e-09|  2.4155e-01|  1.7261e-01|  1.7261e-01|  1.7261e-01|   -5.995901|   -6.113658|   -6.790549|   -6.272033|   -6.273863|   -8.420726|    2.054300|
|          14|  4.8800e+00|  1.7229e-09|  2.6571e-01|  1.8987e-01|  1.8987e-01|  1.8987e-01|   -5.996302|   -6.114033|   -6.790829|   -6.272402|   -6.274275|   -8.420531|    2.054306|
|          15|  4.8964e+00|  1.8952e-09|  2.9228e-01|  2.0886e-01|  2.0886e-01|  2.0886e-01|   -5.996737|   -6.114442|   -6.791120|   -6.272800|   -6.274717|   -8.420316|    2.054312|
|          16|  4.9137e+00|  2.0847e-09|  3.2150e-01|  2.2975e-01|  2.2975e-01|  2.2975e-01|   -5.997207|   -6.114888|   -6.791422|   -6.273226|   -6.275190|   -8.420082|    2.054319|
|          17|  4.9328e+00|  2.2932e-09|  3.5365e-01|  2.5272e-01|  2.5272e-01|  2.5272e-01|   -5.997715|   -6.115373|   -6.791732|   -6.273683|   -6.275694|   -8.419824|    2.054326|
|          18|  4.9575e+00|  2.5225e-09|  3.8902e-01|  2.7800e-01|  2.7800e-01|  2.7800e-01|   -5.998263|   -6.115901|   -6.792049|   -6.274170|   -6.276230|   -8.419543|    2.054335|
|          19|  4.9762e+00|  2.7747e-09|  4.2792e-01|  3.0580e-01|  3.0580e-01|  3.0580e-01|   -5.998853|   -6.116472|   -6.792371|   -6.274688|   -6.276797|   -8.419235|    2.054344|
|          20|  4.9905e+00|  3.0522e-09|  4.7071e-01|  3.3637e-01|  3.3637e-01|  3.3637e-01|   -5.999486|   -6.117090|   -6.792692|   -6.275237|   -6.277394|   -8.418899|    2.054354|
|          21|  5.0037e+00|  3.3574e-09|  5.1778e-01|  3.7001e-01|  3.7001e-01|  3.7001e-01|   -6.000163|   -6.117757|   -6.793009|   -6.275818|   -6.278019|   -8.418532|    2.054365|
|          22|  5.0131e+00|  3.6930e-09|  5.6956e-01|  4.0701e-01|  4.0701e-01|  4.0701e-01|   -6.000886|   -6.118474|   -6.793318|   -6.276428|   -6.278669|   -8.418131|    2.054378|
|          23|  5.0371e+00|  4.0623e-09|  6.2652e-01|  4.4772e-01|  4.4772e-01|  4.4772e-01|   -6.001654|   -6.119242|   -6.793611|   -6.277066|   -6.279337|   -8.417694|    2.054391|
|          24|  5.0579e+00|  4.4685e-09|  6.8917e-01|  4.9249e-01|  4.9249e-01|  4.9249e-01|   -6.002466|   -6.120061|   -6.793883|   -6.277729|   -6.280019|   -8.417219|    2.054406|
|          25|  5.0817e+00|  4.9153e-09|  7.5809e-01|  5.0000e-01|  5.0000e-01|  5.0000e-01|   -6.003320|   -6.120928|   -6.794124|   -6.278414|   -6.280703|   -8.416702|    2.054423|
|          26|  5.1043e+00|  4.9902e-09|  7.6965e-01|  5.0000e-01|  5.0000e-01|  5.0000e-01|   -6.004211|   -6.121842|   -6.794326|   -6.279113|   -6.281379|   -8.416208|    2.054439|
|          27|  5.1276e+00|  4.9901e-09|  7.6965e-01|  5.0000e-01|  5.0000e-01|  5.0000e-01|   -6.005107|   -6.122756|   -6.794530|   -6.279815|   -6.282046|   -8.415724|    2.054456|
|          28|  5.1448e+00|  4.9900e-09|  7.6965e-01|  5.0000e-01|  5.0000e-01|  5.0000e-01|   -6.005999|   -6.123664|   -6.794742|   -6.280518|   -6.282705|   -8.415246|    2.054473|
|          29|  5.1595e+00|  4.9900e-09|  7.6965e-01|  5.0000e-01|  5.0000e-01|  5.0000e-01|   -6.006890|   -6.124566|   -6.794964|   -6.281221|   -6.283356|   -8.414772|    2.054490|
|          30|  5.1740e+00|  4.9899e-09|  7.6965e-01|  5.0000e-01|  5.0000e-01|  5.0000e-01|   -6.007778|   -6.125463|   -6.795193|   -6.281925|   -6.284002|   -8.414304|    2.054506|
|          31|  5.1865e+00|  4.9898e-09|  7.6965e-01|  5.0000e-01|  5.0000e-01|  5.0000e-01|   -6.008664|   -6.126355|   -6.795430|   -6.282631|   -6.284642|   -8.413841|    2.054523|
|          32|  5.2045e+00|  4.9898e-09|  7.6965e-01|  5.0000e-01|  5.0000e-01|  5.0000e-01|   -6.009550|   -6.127242|   -6.795673|   -6.283337|   -6.285277|   -8.413382|    2.054540|
|          33|  5.2165e+00|  4.9897e-09|  7.6965e-01|  5.0000e-01|  5.0000e-01|  5.0000e-01|   -6.010434|   -6.128127|   -6.795922|   -6.284045|   -6.285908|   -8.412929|    2.054557|
|          34|  5.2285e+00|  4.9896e-09|  7.6965e-01|  5.0000e-01|  5.0000e-01|  5.0000e-01|   -6.011317|   -6.129009|   -6.796178|   -6.284755|   -6.286536|   -8.412481|    2.054574|
|          35|  5.2385e+00|  4.9895e-09|  7.6965e-01|  5.0000e-01|  5.0000e-01|  5.0000e-01|   -6.012201|   -6.129889|   -6.796438|   -6.285467|   -6.287161|   -8.412038|    2.054591|
|          36|  5.2467e+00|  4.9895e-09|  7.6965e-01|  5.0000e-01|  5.0000e-01|  5.0000e-01|   -6.013085|   -6.130768|   -6.796702|   -6.286181|   -6.287785|   -8.411599|    2.054608|
|          37|  5.2546e+00|  4.9894e-09|  7.6965e-01|  5.0000e-01|  5.0000e-01|  5.0000e-01|   -6.013970|   -6.131647|   -6.796970|   -6.286899|   -6.288408|   -8.411166|    2.054624|
|          38|  5.2632e+00|  4.9893e-09|  7.6965e-01|  5.0000e-01|  5.0000e-01|  5.0000e-01|   -6.014856|   -6.132527|   -6.797242|   -6.287619|   -6.289032|   -8.410737|    2.054641|
|          39|  5.2712e+00|  4.9892e-09|  7.6965e-01|  5.0000e-01|  5.0000e-01|  5.0000e-01|   -6.015745|   -6.133409|   -6.797517|   -6.288343|   -6.289657|   -8.410313|    2.054658|
|          40|  5.2788e+00|  4.9892e-09|  7.6965e-01|  5.0000e-01|  5.0000e-01|  5.0000e-01|   -6.016636|   -6.134293|   -6.797795|   -6.289071|   -6.290284|   -8.409894|    2.054675|
|          41|  5.2863e+00|  4.9891e-09|  7.6965e-01|  5.0000e-01|  5.0000e-01|  5.0000e-01|   -6.017531|   -6.135180|   -6.798075|   -6.289803|   -6.290914|   -8.409479|    2.054692|
|          42|  5.2924e+00|  4.9890e-09|  7.6965e-01|  5.0000e-01|  5.0000e-01|  5.0000e-01|   -6.018429|   -6.136071|   -6.798357|   -6.290539|   -6.291548|   -8.409069|    2.054709|
|          43|  5.2991e+00|  4.9890e-09|  7.6965e-01|  5.0000e-01|  5.0000e-01|  5.0000e-01|   -6.019331|   -6.136966|   -6.798641|   -6.291280|   -6.292185|   -8.408664|    2.054726|
|          44|  5.3047e+00|  4.9889e-09|  7.6965e-01|  5.0000e-01|  5.0000e-01|  5.0000e-01|   -6.020238|   -6.137866|   -6.798925|   -6.292025|   -6.292828|   -8.408263|    2.054743|
|          45|  5.3103e+00|  4.9888e-09|  7.6965e-01|  5.0000e-01|  5.0000e-01|  5.0000e-01|   -6.021149|   -6.138772|   -6.799210|   -6.292775|   -6.293476|   -8.407867|    2.054760|
|          46|  5.3167e+00|  4.9887e-09|  7.6965e-01|  5.0000e-01|  5.0000e-01|  5.0000e-01|   -6.022065|   -6.139684|   -6.799496|   -6.293530|   -6.294130|   -8.407476|    2.054777|
|          47|  5.3225e+00|  4.9887e-09|  7.6965e-01|  5.0000e-01|  5.0000e-01|  5.0000e-01|   -6.022987|   -6.140603|   -6.799782|   -6.294290|   -6.294791|   -8.407089|    2.054794|
|          48|  5.3276e+00|  4.9886e-09|  7.6965e-01|  5.0000e-01|  5.0000e-01|  5.0000e-01|   -6.023915|   -6.141529|   -6.800067|   -6.295054|   -6.295458|   -8.406707|    2.054811|
|          49|  5.3344e+00|  4.9885e-09|  7.6965e-01|  5.0000e-01|  5.0000e-01|  5.0000e-01|   -6.024848|   -6.142462|   -6.800352|   -6.295824|   -6.296132|   -8.406329|    2.054828|
|          50|  5.3375e+00|  4.9885e-09|  7.6965e-01|  5.0000e-01|  5.0000e-01|  5.0000e-01|   -6.025788|   -6.143403|   -6.800636|   -6.296599|   -6.296813|   -8.405956|    2.054845|
|          51|  5.3417e+00|  4.9884e-09|  7.6965e-01|  5.0000e-01|  5.0000e-01|  5.0000e-01|   -6.026734|   -6.144352|   -6.800919|   -6.297378|   -6.297502|   -8.405587|    2.054862|
|          52|  5.3454e+00|  4.9883e-09|  7.6965e-01|  5.0000e-01|  5.0000e-01|  5.0000e-01|   -6.027686|   -6.145308|   -6.801201|   -6.298163|   -6.298198|   -8.405222|    2.054879|
|          53|  5.3505e+00|  4.9882e-09|  7.6965e-01|  5.0000e-01|  5.0000e-01|  5.0000e-01|   -6.028644|   -6.146273|   -6.801481|   -6.298952|   -6.298901|   -8.404863|    2.054896|
|          54|  5.3531e+00|  4.9882e-09|  7.6965e-01|  5.0000e-01|  5.0000e-01|  5.0000e-01|   -6.029608|   -6.147246|   -6.801760|   -6.299745|   -6.299612|   -8.404507|    2.054913|
|          55|  5.3590e+00|  4.9881e-09|  7.6965e-01|  5.0000e-01|  5.0000e-01|  5.0000e-01|   -6.030580|   -6.148227|   -6.802038|   -6.300543|   -6.300330|   -8.404156|    2.054930|
|          56|  5.3629e+00|  4.9880e-09|  7.6965e-01|  5.0000e-01|  5.0000e-01|  5.0000e-01|   -6.031557|   -6.149216|   -6.802313|   -6.301346|   -6.301056|   -8.403810|    2.054947|
|          57|  5.3660e+00|  4.9880e-09|  7.6965e-01|  5.0000e-01|  5.0000e-01|  5.0000e-01|   -6.032542|   -6.150214|   -6.802587|   -6.302153|   -6.301789|   -8.403468|    2.054964|
|          58|  5.3689e+00|  4.9879e-09|  7.6965e-01|  5.0000e-01|  5.0000e-01|  5.0000e-01|   -6.033532|   -6.151220|   -6.802858|   -6.302963|   -6.302530|   -8.403130|    2.054981|
|          59|  5.3707e+00|  4.9878e-09|  7.6965e-01|  5.0000e-01|  5.0000e-01|  5.0000e-01|   -6.034529|   -6.152234|   -6.803126|   -6.303778|   -6.303277|   -8.402797|    2.054998|
|          60|  5.3736e+00|  4.9877e-09|  7.6965e-01|  5.0000e-01|  5.0000e-01|  5.0000e-01|   -6.035532|   -6.153256|   -6.803392|   -6.304596|   -6.304031|   -8.402468|    2.055015|
|          61|  5.3758e+00|  4.9877e-09|  7.6965e-01|  5.0000e-01|  5.0000e-01|  5.0000e-01|   -6.036541|   -6.154286|   -6.803655|   -6.305417|   -6.304792|   -8.402144|    2.055032|
|          62|  5.3786e+00|  4.9876e-09|  7.6965e-01|  5.0000e-01|  5.0000e-01|  5.0000e-01|   -6.037556|   -6.155324|   -6.803915|   -6.306241|   -6.305560|   -8.401825|    2.055049|
|          63|  5.3807e+00|  4.9875e-09|  7.6965e-01|  5.0000e-01|  5.0000e-01|  5.0000e-01|   -6.038577|   -6.156369|   -6.804172|   -6.307069|   -6.306333|   -8.401509|    2.055066|
|          64|  5.3828e+00|  4.9874e-09|  7.6965e-01|  5.0000e-01|  5.0000e-01|  5.0000e-01|   -6.039605|   -6.157423|   -6.804427|   -6.307900|   -6.307113|   -8.401198|    2.055083|
|          65|  5.3853e+00|  4.9874e-09|  7.6965e-01|  5.0000e-01|  5.0000e-01|  5.0000e-01|   -6.040638|   -6.158483|   -6.804678|   -6.308734|   -6.307898|   -8.400892|    2.055100|
|          66|  5.3875e+00|  4.9873e-09|  7.6965e-01|  5.0000e-01|  5.0000e-01|  5.0000e-01|   -6.041676|   -6.159552|   -6.804926|   -6.309571|   -6.308690|   -8.400590|    2.055117|
|          67|  5.3896e+00|  4.9872e-09|  7.6965e-01|  5.0000e-01|  5.0000e-01|  5.0000e-01|   -6.042720|   -6.160627|   -6.805170|   -6.310410|   -6.309486|   -8.400293|    2.055134|
|          68|  5.3914e+00|  4.9872e-09|  7.6965e-01|  5.0000e-01|  5.0000e-01|  5.0000e-01|   -6.043770|   -6.161710|   -6.805411|   -6.311252|   -6.310288|   -8.400000|    2.055152|
|          69|  5.3937e+00|  4.9871e-09|  7.6965e-01|  5.0000e-01|  5.0000e-01|  5.0000e-01|   -6.044825|   -6.162800|   -6.805648|   -6.312095|   -6.311094|   -8.399711|    2.055169|
|          70|  5.3958e+00|  4.9870e-09|  7.6965e-01|  5.0000e-01|  5.0000e-01|  5.0000e-01|   -6.045885|   -6.163896|   -6.805881|   -6.312942|   -6.311906|   -8.399427|    2.055186|
|          71|  5.3980e+00|  4.9869e-09|  7.6965e-01|  5.0000e-01|  5.0000e-01|  5.0000e-01|   -6.046951|   -6.165000|   -6.806111|   -6.313791|   -6.312723|   -8.399147|    2.055203|
|          72|  5.4014e+00|  4.9869e-09|  7.6965e-01|  5.0000e-01|  5.0000e-01|  5.0000e-01|   -6.048021|   -6.166110|   -6.806337|   -6.314641|   -6.313544|   -8.398872|    2.055220|
|          73|  5.4046e+00|  4.9868e-09|  7.6965e-01|  5.0000e-01|  5.0000e-01|  5.0000e-01|   -6.049097|   -6.167227|   -6.806559|   -6.315494|   -6.314370|   -8.398601|    2.055237|
|          74|  5.4063e+00|  4.9867e-09|  7.6965e-01|  5.0000e-01|  5.0000e-01|  5.0000e-01|   -6.050177|   -6.168351|   -6.806778|   -6.316349|   -6.315200|   -8.398335|    2.055254|
|          75|  5.4078e+00|  4.9867e-09|  7.6965e-01|  5.0000e-01|  5.0000e-01|  5.0000e-01|   -6.051262|   -6.169481|   -6.806992|   -6.317205|   -6.316034|   -8.398073|    2.055271|
|          76|  5.4092e+00|  4.9866e-09|  7.6965e-01|  5.0000e-01|  5.0000e-01|  5.0000e-01|   -6.052352|   -6.170617|   -6.807202|   -6.318063|   -6.316872|   -8.397816|    2.055288|
|          77|  5.4099e+00|  4.9865e-09|  7.6965e-01|  5.0000e-01|  5.0000e-01|  5.0000e-01|   -6.053446|   -6.171759|   -6.807408|   -6.318923|   -6.317714|   -8.397563|    2.055305|
|          78|  5.4108e+00|  4.9864e-09|  7.6965e-01|  5.0000e-01|  5.0000e-01|  5.0000e-01|   -6.054544|   -6.172908|   -6.807610|   -6.319785|   -6.318559|   -8.397315|    2.055322|
|          79|  5.4118e+00|  4.9864e-09|  7.6965e-01|  5.0000e-01|  5.0000e-01|  5.0000e-01|   -6.055646|   -6.174063|   -6.807809|   -6.320647|   -6.319408|   -8.397071|    2.055339|
|          80|  5.4141e+00|  4.9863e-09|  7.6965e-01|  5.0000e-01|  5.0000e-01|  5.0000e-01|   -6.056753|   -6.175223|   -6.808003|   -6.321511|   -6.320261|   -8.396831|    2.055356|
|          81|  5.4146e+00|  4.9862e-09|  7.6965e-01|  5.0000e-01|  5.0000e-01|  5.0000e-01|   -6.057863|   -6.176388|   -6.808193|   -6.322376|   -6.321116|   -8.396596|    2.055373|
|          82|  5.4164e+00|  4.9862e-09|  7.6965e-01|  5.0000e-01|  5.0000e-01|  5.0000e-01|   -6.058976|   -6.177560|   -6.808380|   -6.323242|   -6.321975|   -8.396366|    2.055390|
|          83|  5.4177e+00|  4.9861e-09|  7.6965e-01|  5.0000e-01|  5.0000e-01|  5.0000e-01|   -6.060093|   -6.178736|   -6.808562|   -6.324109|   -6.322836|   -8.396140|    2.055408|
|          84|  5.4186e+00|  4.9860e-09|  7.6965e-01|  5.0000e-01|  5.0000e-01|  5.0000e-01|   -6.061214|   -6.179918|   -6.808739|   -6.324977|   -6.323700|   -8.395918|    2.055425|
|          85|  5.4205e+00|  4.9859e-09|  7.6965e-01|  5.0000e-01|  5.0000e-01|  5.0000e-01|   -6.062337|   -6.181106|   -6.808913|   -6.325845|   -6.324567|   -8.395701|    2.055442|
|          86|  5.4221e+00|  4.9859e-09|  7.6965e-01|  5.0000e-01|  5.0000e-01|  5.0000e-01|   -6.063464|   -6.182298|   -6.809083|   -6.326714|   -6.325436|   -8.395488|    2.055459|
|          87|  5.4239e+00|  4.9858e-09|  7.6965e-01|  5.0000e-01|  5.0000e-01|  5.0000e-01|   -6.064593|   -6.183495|   -6.809248|   -6.327583|   -6.326308|   -8.395279|    2.055476|
|          88|  5.4239e+00|  4.9857e-09|  7.6965e-01|  5.0000e-01|  5.0000e-01|  5.0000e-01|   -6.065725|   -6.184696|   -6.809409|   -6.328453|   -6.327181|   -8.395075|    2.055493|
|          89|  5.4243e+00|  4.9857e-09|  7.6965e-01|  5.0000e-01|  5.0000e-01|  5.0000e-01|   -6.066859|   -6.185902|   -6.809566|   -6.329322|   -6.328057|   -8.394876|    2.055510|
|          90|  5.4242e+00|  4.9856e-09|  7.6965e-01|  5.0000e-01|  5.0000e-01|  5.0000e-01|   -6.067995|   -6.187113|   -6.809718|   -6.330192|   -6.328934|   -8.394681|    2.055527|
|          91|  5.4251e+00|  4.9855e-09|  7.6965e-01|  5.0000e-01|  5.0000e-01|  5.0000e-01|   -6.069133|   -6.188327|   -6.809867|   -6.331061|   -6.329813|   -8.394490|    2.055544|
|          92|  5.4250e+00|  4.9854e-09|  7.6965e-01|  5.0000e-01|  5.0000e-01|  5.0000e-01|   -6.070273|   -6.189546|   -6.810010|   -6.331930|   -6.330693|   -8.394304|    2.055561|
|          93|  5.4259e+00|  4.9854e-09|  7.6965e-01|  5.0000e-01|  5.0000e-01|  5.0000e-01|   -6.071413|   -6.190768|   -6.810150|   -6.332799|   -6.331575|   -8.394122|    2.055578|
|          94|  5.4271e+00|  4.9853e-09|  7.6965e-01|  5.0000e-01|  5.0000e-01|  5.0000e-01|   -6.072555|   -6.191993|   -6.810286|   -6.333666|   -6.332457|   -8.393945|    2.055595|
|          95|  5.4277e+00|  4.9852e-09|  7.6965e-01|  5.0000e-01|  5.0000e-01|  5.0000e-01|   -6.073698|   -6.193222|   -6.810417|   -6.334532|   -6.333339|   -8.393772|    2.055612|
|          96|  5.4290e+00|  4.9852e-09|  7.6965e-01|  5.0000e-01|  5.0000e-01|  5.0000e-01|   -6.074842|   -6.194454|   -6.810544|   -6.335397|   -6.334223|   -8.393603|    2.055628|
|          97|  5.4294e+00|  4.9851e-09|  7.6965e-01|  5.0000e-01|  5.0000e-01|  5.0000e-01|   -6.075986|   -6.195689|   -6.810667|   -6.336262|   -6.335107|   -8.393439|    2.055645|
|          98|  5.4298e+00|  4.9850e-09|  7.6965e-01|  5.0000e-01|  5.0000e-01|  5.0000e-01|   -6.077131|   -6.196927|   -6.810786|   -6.337124|   -6.335992|   -8.393279|    2.055662|
|          99|  5.4300e+00|  4.9849e-09|  7.6965e-01|  5.0000e-01|  5.0000e-01|  5.0000e-01|   -6.078275|   -6.198167|   -6.810901|   -6.337985|   -6.336876|   -8.393124|    2.055679|
|         100|  5.4310e+00|  4.9849e-09|  7.6965e-01|  5.0000e-01|  5.0000e-01|  5.0000e-01|   -6.079420|   -6.199410|   -6.811011|   -6.338845|   -6.337761|   -8.392973|    2.055696|
|         101|  5.4314e+00|  4.9848e-09|  7.6965e-01|  5.0000e-01|  5.0000e-01|  5.0000e-01|   -6.080565|   -6.200656|   -6.811117|   -6.339702|   -6.338645|   -8.392826|    2.055713|
|         102|  5.4321e+00|  4.9847e-09|  7.6965e-01|  5.0000e-01|  5.0000e-01|  5.0000e-01|   -6.081709|   -6.201903|   -6.811218|   -6.340558|   -6.339530|   -8.392684|    2.055730|
|         103|  5.4327e+00|  4.9847e-09|  7.6965e-01|  5.0000e-01|  5.0000e-01|  5.0000e-01|   -6.082853|   -6.203153|   -6.811315|   -6.341412|   -6.340414|   -8.392546|    2.055747|
|         104|  5.4336e+00|  4.9846e-09|  7.6965e-01|  5.0000e-01|  5.0000e-01|  5.0000e-01|   -6.083996|   -6.204405|   -6.811408|   -6.342264|   -6.341297|   -8.392413|    2.055764|
|         105|  5.4345e+00|  4.9845e-09|  7.6965e-01|  5.0000e-01|  5.0000e-01|  5.0000e-01|   -6.085138|   -6.205658|   -6.811496|   -6.343113|   -6.342180|   -8.392283|    2.055781|
|         106|  5.4357e+00|  4.9844e-09|  7.6965e-01|  5.0000e-01|  5.0000e-01|  5.0000e-01|   -6.086279|   -6.206913|   -6.811580|   -6.343960|   -6.343062|   -8.392159|    2.055797|
|         107|  5.4362e+00|  4.9844e-09|  7.6965e-01|  5.0000e-01|  5.0000e-01|  5.0000e-01|   -6.087420|   -6.208171|   -6.811660|   -6.344804|   -6.343944|   -8.392038|    2.055814|
|         108|  5.4364e+00|  4.9843e-09|  7.6965e-01|  5.0000e-01|  5.0000e-01|  5.0000e-01|   -6.088559|   -6.209429|   -6.811736|   -6.345646|   -6.344825|   -8.391922|    2.055831|
|         109|  5.4380e+00|  4.9842e-09|  7.6965e-01|  5.0000e-01|  5.0000e-01|  5.0000e-01|   -6.089697|   -6.210690|   -6.811807|   -6.346486|   -6.345706|   -8.391810|    2.055848|
|         110|  5.4386e+00|  4.9842e-09|  7.6965e-01|  5.0000e-01|  5.0000e-01|  5.0000e-01|   -6.090834|   -6.211951|   -6.811874|   -6.347323|   -6.346585|   -8.391703|    2.055865|
|         111|  5.4390e+00|  4.9841e-09|  7.6965e-01|  5.0000e-01|  5.0000e-01|  5.0000e-01|   -6.091970|   -6.213215|   -6.811937|   -6.348158|   -6.347464|   -8.391600|    2.055881|
|         112|  5.4391e+00|  4.9840e-09|  7.6965e-01|  5.0000e-01|  5.0000e-01|  5.0000e-01|   -6.093104|   -6.214479|   -6.811995|   -6.348989|   -6.348341|   -8.391501|    2.055898|
|         113|  5.4396e+00|  4.9840e-09|  7.6965e-01|  5.0000e-01|  5.0000e-01|  5.0000e-01|   -6.094236|   -6.215745|   -6.812048|   -6.349818|   -6.349218|   -8.391407|    2.055915|
|         114|  5.4400e+00|  4.9839e-09|  7.6965e-01|  5.0000e-01|  5.0000e-01|  5.0000e-01|   -6.095367|   -6.217012|   -6.812097|   -6.350643|   -6.350093|   -8.391317|    2.055932|
|         115|  5.4402e+00|  4.9838e-09|  7.6965e-01|  5.0000e-01|  5.0000e-01|  5.0000e-01|   -6.096495|   -6.218280|   -6.812141|   -6.351466|   -6.350968|   -8.391231|    2.055948|
|         116|  5.4415e+00|  4.9837e-09|  7.6965e-01|  5.0000e-01|  5.0000e-01|  5.0000e-01|   -6.097622|   -6.219549|   -6.812182|   -6.352286|   -6.351841|   -8.391150|    2.055965|
|         117|  5.4414e+00|  4.9837e-09|  7.6965e-01|  5.0000e-01|  5.0000e-01|  5.0000e-01|   -6.098747|   -6.220819|   -6.812218|   -6.353102|   -6.352714|   -8.391073|    2.055982|
|         118|  5.4418e+00|  4.9836e-09|  7.6965e-01|  5.0000e-01|  5.0000e-01|  5.0000e-01|   -6.099870|   -6.222090|   -6.812250|   -6.353916|   -6.353585|   -8.391000|    2.055998|
|         119|  5.4416e+00|  4.9835e-09|  7.6965e-01|  5.0000e-01|  5.0000e-01|  5.0000e-01|   -6.100991|   -6.223361|   -6.812278|   -6.354726|   -6.354455|   -8.390931|    2.056015|
|         120|  5.4418e+00|  4.9835e-09|  7.6965e-01|  5.0000e-01|  5.0000e-01|  5.0000e-01|   -6.102109|   -6.224634|   -6.812301|   -6.355533|   -6.355324|   -8.390867|    2.056031|
|         121|  5.4420e+00|  4.9834e-09|  7.6965e-01|  5.0000e-01|  5.0000e-01|  5.0000e-01|   -6.103225|   -6.225907|   -6.812320|   -6.356337|   -6.356192|   -8.390807|    2.056048|
|         122|  5.4424e+00|  4.9833e-09|  7.6965e-01|  5.0000e-01|  5.0000e-01|  5.0000e-01|   -6.104339|   -6.227181|   -6.812336|   -6.357138|   -6.357058|   -8.390751|    2.056065|
|         123|  5.4427e+00|  4.9832e-09|  7.6965e-01|  5.0000e-01|  5.0000e-01|  5.0000e-01|   -6.105450|   -6.228455|   -6.812348|   -6.357935|   -6.357923|   -8.390699|    2.056081|
|         124|  5.4426e+00|  4.9832e-09|  7.6965e-01|  5.0000e-01|  5.0000e-01|  5.0000e-01|   -6.106558|   -6.229730|   -6.812356|   -6.358728|   -6.358787|   -8.390652|    2.056098|
|         125|  5.4422e+00|  4.9831e-09|  7.6965e-01|  5.0000e-01|  5.0000e-01|  5.0000e-01|   -6.107663|   -6.231005|   -6.812360|   -6.359517|   -6.359649|   -8.390609|    2.056114|
|         126|  5.4429e+00|  4.9830e-09|  7.6965e-01|  5.0000e-01|  5.0000e-01|  5.0000e-01|   -6.108765|   -6.232280|   -6.812359|   -6.360303|   -6.360510|   -8.390570|    2.056131|
|         127|  5.4433e+00|  4.9830e-09|  7.6965e-01|  5.0000e-01|  5.0000e-01|  5.0000e-01|   -6.109864|   -6.233555|   -6.812355|   -6.361084|   -6.361368|   -8.390535|    2.056147|
|         128|  5.4438e+00|  4.9829e-09|  7.6965e-01|  5.0000e-01|  5.0000e-01|  5.0000e-01|   -6.110959|   -6.234829|   -6.812346|   -6.361861|   -6.362225|   -8.390504|    2.056164|
|         129|  5.4442e+00|  4.9828e-09|  7.6965e-01|  5.0000e-01|  5.0000e-01|  5.0000e-01|   -6.112051|   -6.236103|   -6.812334|   -6.362634|   -6.363080|   -8.390478|    2.056180|
|         130|  5.4440e+00|  4.9827e-09|  7.6965e-01|  5.0000e-01|  5.0000e-01|  5.0000e-01|   -6.113139|   -6.237377|   -6.812317|   -6.363403|   -6.363933|   -8.390456|    2.056196|
|         131|  5.4441e+00|  4.9827e-09|  7.6965e-01|  5.0000e-01|  5.0000e-01|  5.0000e-01|   -6.114223|   -6.238649|   -6.812297|   -6.364167|   -6.364783|   -8.390438|    2.056213|
|         132|  5.4443e+00|  4.9826e-09|  7.6965e-01|  5.0000e-01|  5.0000e-01|  5.0000e-01|   -6.115302|   -6.239921|   -6.812272|   -6.364927|   -6.365631|   -8.390424|    2.056229|
|         133|  5.4445e+00|  4.9825e-09|  7.6965e-01|  5.0000e-01|  5.0000e-01|  5.0000e-01|   -6.116377|   -6.241191|   -6.812244|   -6.365682|   -6.366477|   -8.390415|    2.056245|
|         134|  5.4447e+00|  4.9825e-09|  7.6965e-01|  5.0000e-01|  5.0000e-01|  5.0000e-01|   -6.117447|   -6.242460|   -6.812211|   -6.366432|   -6.367320|   -8.390409|    2.056262|
|         135|  5.4451e+00|  4.9824e-09|  7.6965e-01|  5.0000e-01|  5.0000e-01|  5.0000e-01|   -6.118513|   -6.243727|   -6.812175|   -6.367177|   -6.368161|   -8.390408|    2.056278|
|         136|  5.4453e+00|  4.9823e-09|  7.6965e-01|  5.0000e-01|  5.0000e-01|  5.0000e-01|   -6.119574|   -6.244993|   -6.812136|   -6.367917|   -6.368999|   -8.390410|    2.056294|
|         137|  5.4454e+00|  4.9823e-09|  7.6965e-01|  5.0000e-01|  5.0000e-01|  5.0000e-01|   -6.120630|   -6.246257|   -6.812092|   -6.368652|   -6.369834|   -8.390417|    2.056311|
|         138|  5.4459e+00|  4.9822e-09|  7.6965e-01|  5.0000e-01|  5.0000e-01|  5.0000e-01|   -6.121680|   -6.247518|   -6.812045|   -6.369382|   -6.370666|   -8.390428|    2.056327|
|         139|  5.4461e+00|  4.9821e-09|  7.6965e-01|  5.0000e-01|  5.0000e-01|  5.0000e-01|   -6.122725|   -6.248777|   -6.811995|   -6.370107|   -6.371496|   -8.390443|    2.056343|
|         140|  5.4460e+00|  4.9820e-09|  7.6965e-01|  5.0000e-01|  5.0000e-01|  5.0000e-01|   -6.123765|   -6.250033|   -6.811940|   -6.370826|   -6.372322|   -8.390463|    2.056359|
|         141|  5.4463e+00|  4.9820e-09|  7.6965e-01|  5.0000e-01|  5.0000e-01|  5.0000e-01|   -6.124798|   -6.251286|   -6.811882|   -6.371539|   -6.373144|   -8.390486|    2.056375|
|         142|  5.4465e+00|  4.9819e-09|  7.6965e-01|  5.0000e-01|  5.0000e-01|  5.0000e-01|   -6.125825|   -6.252537|   -6.811820|   -6.372246|   -6.373963|   -8.390513|    2.056391|
|         143|  5.4469e+00|  4.9818e-09|  7.6965e-01|  5.0000e-01|  5.0000e-01|  5.0000e-01|   -6.126845|   -6.253783|   -6.811755|   -6.372948|   -6.374778|   -8.390545|    2.056408|
|         144|  5.4469e+00|  4.9818e-09|  7.6965e-01|  5.0000e-01|  5.0000e-01|  5.0000e-01|   -6.127859|   -6.255027|   -6.811686|   -6.373643|   -6.375589|   -8.390580|    2.056424|
|         145|  5.4469e+00|  4.9817e-09|  7.6965e-01|  5.0000e-01|  5.0000e-01|  5.0000e-01|   -6.128866|   -6.256266|   -6.811613|   -6.374332|   -6.376396|   -8.390619|    2.056440|
|         146|  5.4475e+00|  4.9816e-09|  7.6965e-01|  5.0000e-01|  5.0000e-01|  5.0000e-01|   -6.129866|   -6.257501|   -6.811537|   -6.375014|   -6.377199|   -8.390663|    2.056456|
|         147|  5.4471e+00|  4.9815e-09|  7.6965e-01|  5.0000e-01|  5.0000e-01|  5.0000e-01|   -6.130858|   -6.258732|   -6.811457|   -6.375690|   -6.377998|   -8.390710|    2.056472|
|         148|  5.4481e+00|  4.9815e-09|  7.6965e-01|  5.0000e-01|  5.0000e-01|  5.0000e-01|   -6.131843|   -6.259959|   -6.811373|   -6.376359|   -6.378792|   -8.390762|    2.056488|
|         149|  5.4485e+00|  4.9814e-09|  7.6965e-01|  5.0000e-01|  5.0000e-01|  5.0000e-01|   -6.132820|   -6.261180|   -6.811286|   -6.377022|   -6.379581|   -8.390817|    2.056504|
|         150|  5.4483e+00|  4.9813e-09|  7.6965e-01|  5.0000e-01|  5.0000e-01|  5.0000e-01|   -6.133789|   -6.262397|   -6.811196|   -6.377678|   -6.380367|   -8.390877|    2.056520|
+-----------------------------------------------------------------------+
|        File Writing Summary       |              Filename             |
+-----------------------------------------------------------------------+
|SU2 binary restart                 |restart_flow.dat                   |
|Paraview                           |flow.vtu                           |
|Paraview surface                   |surface_flow.vtu                   |
+-----------------------------------------------------------------------+
+-------------------------------------------------------------------------------------------------------------------------------------------------------------------------------------+
|  Inner_Iter|   Time(sec)|      Min DT|      Max DT|     Min CFL|     Max CFL|     Avg CFL|    rms[Rho]|   rms[RhoU]|   rms[RhoV]|   rms[RhoW]|   rms[RhoE]|     rms[nu]|          CD|
+-------------------------------------------------------------------------------------------------------------------------------------------------------------------------------------+
|         151|  5.6148e+00|  4.9813e-09|  7.6965e-01|  5.0000e-01|  5.0000e-01|  5.0000e-01|   -6.134750|   -6.263609|   -6.811102|   -6.378327|   -6.381147|   -8.390940|    2.056535|
|         152|  5.6155e+00|  4.9812e-09|  7.6965e-01|  5.0000e-01|  5.0000e-01|  5.0000e-01|   -6.135703|   -6.264816|   -6.811005|   -6.378969|   -6.381923|   -8.391008|    2.056551|
|         153|  5.6154e+00|  4.9811e-09|  7.6965e-01|  5.0000e-01|  5.0000e-01|  5.0000e-01|   -6.136648|   -6.266016|   -6.810904|   -6.379604|   -6.382693|   -8.391079|    2.056567|
|         154|  5.6142e+00|  4.9811e-09|  7.6965e-01|  5.0000e-01|  5.0000e-01|  5.0000e-01|   -6.137584|   -6.267212|   -6.810800|   -6.380231|   -6.383458|   -8.391154|    2.056583|
|         155|  5.6130e+00|  4.9810e-09|  7.6965e-01|  5.0000e-01|  5.0000e-01|  5.0000e-01|   -6.138510|   -6.268401|   -6.810692|   -6.380852|   -6.384219|   -8.391234|    2.056599|
|         156|  5.6115e+00|  4.9809e-09|  7.6965e-01|  5.0000e-01|  5.0000e-01|  5.0000e-01|   -6.139428|   -6.269584|   -6.810581|   -6.381464|   -6.384973|   -8.391317|    2.056614|
|         157|  5.6102e+00|  4.9808e-09|  7.6965e-01|  5.0000e-01|  5.0000e-01|  5.0000e-01|   -6.140337|   -6.270760|   -6.810467|   -6.382070|   -6.385722|   -8.391404|    2.056630|
|         158|  5.6090e+00|  4.9808e-09|  7.6965e-01|  5.0000e-01|  5.0000e-01|  5.0000e-01|   -6.141236|   -6.271929|   -6.810350|   -6.382667|   -6.386466|   -8.391495|    2.056646|
|         159|  5.6082e+00|  4.9807e-09|  7.6965e-01|  5.0000e-01|  5.0000e-01|  5.0000e-01|   -6.142125|   -6.273092|   -6.810229|   -6.383257|   -6.387204|   -8.391590|    2.056662|
|         160|  5.6074e+00|  4.9806e-09|  7.6965e-01|  5.0000e-01|  5.0000e-01|  5.0000e-01|   -6.143004|   -6.274247|   -6.810105|   -6.383838|   -6.387936|   -8.391688|    2.056677|
|         161|  5.6066e+00|  4.9806e-09|  7.6965e-01|  5.0000e-01|  5.0000e-01|  5.0000e-01|   -6.143874|   -6.275395|   -6.809977|   -6.384412|   -6.388661|   -8.391791|    2.056693|
|         162|  5.6057e+00|  4.9805e-09|  7.6965e-01|  5.0000e-01|  5.0000e-01|  5.0000e-01|   -6.144733|   -6.276535|   -6.809847|   -6.384978|   -6.389381|   -8.391897|    2.056708|
|         163|  5.6046e+00|  4.9804e-09|  7.6965e-01|  5.0000e-01|  5.0000e-01|  5.0000e-01|   -6.145581|   -6.277667|   -6.809713|   -6.385535|   -6.390095|   -8.392007|    2.056724|
|         164|  5.6032e+00|  4.9803e-09|  7.6965e-01|  5.0000e-01|  5.0000e-01|  5.0000e-01|   -6.146420|   -6.278790|   -6.809577|   -6.386085|   -6.390802|   -8.392121|    2.056739|
|         165|  5.6022e+00|  4.9803e-09|  7.6965e-01|  5.0000e-01|  5.0000e-01|  5.0000e-01|   -6.147247|   -6.279906|   -6.809437|   -6.386626|   -6.391503|   -8.392239|    2.056755|
|         166|  5.6015e+00|  4.9802e-09|  7.6965e-01|  5.0000e-01|  5.0000e-01|  5.0000e-01|   -6.148063|   -6.281012|   -6.809295|   -6.387158|   -6.392197|   -8.392361|    2.056770|
|         167|  5.6005e+00|  4.9801e-09|  7.6965e-01|  5.0000e-01|  5.0000e-01|  5.0000e-01|   -6.148868|   -6.282109|   -6.809149|   -6.387682|   -6.392884|   -8.392486|    2.056786|
|         168|  5.5996e+00|  4.9801e-09|  7.6965e-01|  5.0000e-01|  5.0000e-01|  5.0000e-01|   -6.149661|   -6.283197|   -6.809000|   -6.388197|   -6.393565|   -8.392616|    2.056801|
|         169|  5.5989e+00|  4.9800e-09|  7.6965e-01|  5.0000e-01|  5.0000e-01|  5.0000e-01|   -6.150442|   -6.284275|   -6.808848|   -6.388702|   -6.394238|   -8.392749|    2.056816|
|         170|  5.5978e+00|  4.9799e-09|  7.6965e-01|  5.0000e-01|  5.0000e-01|  5.0000e-01|   -6.151211|   -6.285343|   -6.808694|   -6.389199|   -6.394903|   -8.392885|    2.056832|
|         171|  5.5969e+00|  4.9799e-09|  7.6965e-01|  5.0000e-01|  5.0000e-01|  5.0000e-01|   -6.151968|   -6.286401|   -6.808536|   -6.389686|   -6.395561|   -8.393026|    2.056847|
|         172|  5.5959e+00|  4.9798e-09|  7.6965e-01|  5.0000e-01|  5.0000e-01|  5.0000e-01|   -6.152713|   -6.287448|   -6.808376|   -6.390164|   -6.396212|   -8.393170|    2.056862|
|         173|  5.5954e+00|  4.9797e-09|  7.6965e-01|  5.0000e-01|  5.0000e-01|  5.0000e-01|   -6.153446|   -6.288485|   -6.808212|   -6.390633|   -6.396855|   -8.393318|    2.056878|
|         174|  5.5944e+00|  4.9796e-09|  7.6965e-01|  5.0000e-01|  5.0000e-01|  5.0000e-01|   -6.154166|   -6.289511|   -6.808046|   -6.391092|   -6.397491|   -8.393469|    2.056893|
|         175|  5.5936e+00|  4.9796e-09|  7.6965e-01|  5.0000e-01|  5.0000e-01|  5.0000e-01|   -6.154873|   -6.290525|   -6.807877|   -6.391542|   -6.398118|   -8.393625|    2.056908|
|         176|  5.5927e+00|  4.9795e-09|  7.6965e-01|  5.0000e-01|  5.0000e-01|  5.0000e-01|   -6.155566|   -6.291528|   -6.807706|   -6.391982|   -6.398737|   -8.393784|    2.056923|
|         177|  5.5916e+00|  4.9794e-09|  7.6965e-01|  5.0000e-01|  5.0000e-01|  5.0000e-01|   -6.156247|   -6.292519|   -6.807530|   -6.392413|   -6.399348|   -8.393946|    2.056938|
|         178|  5.5907e+00|  4.9794e-09|  7.6965e-01|  5.0000e-01|  5.0000e-01|  5.0000e-01|   -6.156914|   -6.293498|   -6.807353|   -6.392833|   -6.399951|   -8.394113|    2.056953|
|         179|  5.5901e+00|  4.9793e-09|  7.6965e-01|  5.0000e-01|  5.0000e-01|  5.0000e-01|   -6.157567|   -6.294464|   -6.807173|   -6.393244|   -6.400545|   -8.394283|    2.056968|
|         180|  5.5891e+00|  4.9792e-09|  7.6965e-01|  5.0000e-01|  5.0000e-01|  5.0000e-01|   -6.158207|   -6.295418|   -6.806991|   -6.393645|   -6.401131|   -8.394456|    2.056983|
|         181|  5.5885e+00|  4.9792e-09|  7.6965e-01|  5.0000e-01|  5.0000e-01|  5.0000e-01|   -6.158833|   -6.296359|   -6.806806|   -6.394036|   -6.401708|   -8.394634|    2.056998|
|         182|  5.5880e+00|  4.9791e-09|  7.6965e-01|  5.0000e-01|  5.0000e-01|  5.0000e-01|   -6.159445|   -6.297287|   -6.806618|   -6.394417|   -6.402276|   -8.394815|    2.057013|
|         183|  5.5875e+00|  4.9790e-09|  7.6965e-01|  5.0000e-01|  5.0000e-01|  5.0000e-01|   -6.160042|   -6.298202|   -6.806428|   -6.394787|   -6.402836|   -8.394999|    2.057028|
|         184|  5.5870e+00|  4.9789e-09|  7.6965e-01|  5.0000e-01|  5.0000e-01|  5.0000e-01|   -6.160625|   -6.299103|   -6.806236|   -6.395147|   -6.403386|   -8.395187|    2.057043|
|         185|  5.5868e+00|  4.9789e-09|  7.6965e-01|  5.0000e-01|  5.0000e-01|  5.0000e-01|   -6.161193|   -6.299990|   -6.806042|   -6.395497|   -6.403927|   -8.395379|    2.057058|
|         186|  5.5859e+00|  4.9788e-09|  7.6965e-01|  5.0000e-01|  5.0000e-01|  5.0000e-01|   -6.161746|   -6.300863|   -6.805844|   -6.395837|   -6.404459|   -8.395574|    2.057072|
|         187|  5.5852e+00|  4.9787e-09|  7.6965e-01|  5.0000e-01|  5.0000e-01|  5.0000e-01|   -6.162285|   -6.301722|   -6.805644|   -6.396165|   -6.404981|   -8.395773|    2.057087|
|         188|  5.5847e+00|  4.9787e-09|  7.6965e-01|  5.0000e-01|  5.0000e-01|  5.0000e-01|   -6.162808|   -6.302566|   -6.805441|   -6.396483|   -6.405494|   -8.395975|    2.057102|
|         189|  5.5840e+00|  4.9786e-09|  7.6965e-01|  5.0000e-01|  5.0000e-01|  5.0000e-01|   -6.163316|   -6.303396|   -6.805237|   -6.396791|   -6.405998|   -8.396181|    2.057116|
|         190|  5.5834e+00|  4.9785e-09|  7.6965e-01|  5.0000e-01|  5.0000e-01|  5.0000e-01|   -6.163808|   -6.304211|   -6.805031|   -6.397087|   -6.406491|   -8.396390|    2.057131|
|         191|  5.5825e+00|  4.9784e-09|  7.6965e-01|  5.0000e-01|  5.0000e-01|  5.0000e-01|   -6.164286|   -6.305010|   -6.804822|   -6.397374|   -6.406976|   -8.396603|    2.057146|
|         192|  5.5815e+00|  4.9784e-09|  7.6965e-01|  5.0000e-01|  5.0000e-01|  5.0000e-01|   -6.164748|   -6.305795|   -6.804612|   -6.397649|   -6.407451|   -8.396819|    2.057160|
|         193|  5.5807e+00|  4.9783e-09|  7.6965e-01|  5.0000e-01|  5.0000e-01|  5.0000e-01|   -6.165195|   -6.306563|   -6.804399|   -6.397914|   -6.407916|   -8.397039|    2.057175|
|         194|  5.5801e+00|  4.9782e-09|  7.6965e-01|  5.0000e-01|  5.0000e-01|  5.0000e-01|   -6.165626|   -6.307317|   -6.804185|   -6.398169|   -6.408372|   -8.397262|    2.057189|
|         195|  5.5796e+00|  4.9782e-09|  7.6965e-01|  5.0000e-01|  5.0000e-01|  5.0000e-01|   -6.166042|   -6.308054|   -6.803969|   -6.398413|   -6.408818|   -8.397489|    2.057204|
|         196|  5.5792e+00|  4.9781e-09|  7.6965e-01|  5.0000e-01|  5.0000e-01|  5.0000e-01|   -6.166443|   -6.308775|   -6.803751|   -6.398647|   -6.409255|   -8.397719|    2.057218|
|         197|  5.5786e+00|  4.9780e-09|  7.6965e-01|  5.0000e-01|  5.0000e-01|  5.0000e-01|   -6.166827|   -6.309481|   -6.803532|   -6.398869|   -6.409681|   -8.397953|    2.057232|
|         198|  5.5780e+00|  4.9780e-09|  7.6965e-01|  5.0000e-01|  5.0000e-01|  5.0000e-01|   -6.167196|   -6.310169|   -6.803310|   -6.399081|   -6.410098|   -8.398190|    2.057247|
|         199|  5.5775e+00|  4.9779e-09|  7.6965e-01|  5.0000e-01|  5.0000e-01|  5.0000e-01|   -6.167549|   -6.310841|   -6.803087|   -6.399283|   -6.410505|   -8.398430|    2.057261|
|         200|  5.5766e+00|  4.9778e-09|  7.6965e-01|  5.0000e-01|  5.0000e-01|  5.0000e-01|   -6.167886|   -6.311497|   -6.802862|   -6.399473|   -6.410901|   -8.398674|    2.057275|
|         201|  5.5764e+00|  4.9777e-09|  7.6965e-01|  5.0000e-01|  5.0000e-01|  5.0000e-01|   -6.168206|   -6.312135|   -6.802635|   -6.399652|   -6.411287|   -8.398921|    2.057289|
|         202|  5.5758e+00|  4.9777e-09|  7.6965e-01|  5.0000e-01|  5.0000e-01|  5.0000e-01|   -6.168511|   -6.312756|   -6.802407|   -6.399821|   -6.411663|   -8.399172|    2.057304|
|         203|  5.5754e+00|  4.9776e-09|  7.6965e-01|  5.0000e-01|  5.0000e-01|  5.0000e-01|   -6.168799|   -6.313360|   -6.802177|   -6.399979|   -6.412030|   -8.399426|    2.057318|
|         204|  5.5749e+00|  4.9775e-09|  7.6965e-01|  5.0000e-01|  5.0000e-01|  5.0000e-01|   -6.169072|   -6.313947|   -6.801945|   -6.400126|   -6.412385|   -8.399683|    2.057332|
|         205|  5.5739e+00|  4.9775e-09|  7.6965e-01|  5.0000e-01|  5.0000e-01|  5.0000e-01|   -6.169327|   -6.314515|   -6.801712|   -6.400262|   -6.412730|   -8.399943|    2.057346|
|         206|  5.5731e+00|  4.9774e-09|  7.6965e-01|  5.0000e-01|  5.0000e-01|  5.0000e-01|   -6.169567|   -6.315066|   -6.801478|   -6.400388|   -6.413065|   -8.400207|    2.057360|
|         207|  5.5732e+00|  4.9773e-09|  7.6965e-01|  5.0000e-01|  5.0000e-01|  5.0000e-01|   -6.169789|   -6.315599|   -6.801242|   -6.400502|   -6.413389|   -8.400474|    2.057374|
|         208|  5.5728e+00|  4.9773e-09|  7.6965e-01|  5.0000e-01|  5.0000e-01|  5.0000e-01|   -6.169996|   -6.316113|   -6.801004|   -6.400605|   -6.413702|   -8.400745|    2.057388|
|         209|  5.5720e+00|  4.9772e-09|  7.6965e-01|  5.0000e-01|  5.0000e-01|  5.0000e-01|   -6.170185|   -6.316610|   -6.800765|   -6.400697|   -6.414005|   -8.401018|    2.057402|
|         210|  5.5711e+00|  4.9771e-09|  7.6965e-01|  5.0000e-01|  5.0000e-01|  5.0000e-01|   -6.170358|   -6.317087|   -6.800524|   -6.400778|   -6.414296|   -8.401295|    2.057415|
|         211|  5.5705e+00|  4.9770e-09|  7.6965e-01|  5.0000e-01|  5.0000e-01|  5.0000e-01|   -6.170514|   -6.317546|   -6.800282|   -6.400849|   -6.414577|   -8.401575|    2.057429|
|         212|  5.5699e+00|  4.9770e-09|  7.6965e-01|  5.0000e-01|  5.0000e-01|  5.0000e-01|   -6.170653|   -6.317986|   -6.800039|   -6.400908|   -6.414847|   -8.401858|    2.057443|
|         213|  5.5693e+00|  4.9769e-09|  7.6965e-01|  5.0000e-01|  5.0000e-01|  5.0000e-01|   -6.170776|   -6.318407|   -6.799795|   -6.400956|   -6.415105|   -8.402145|    2.057457|
|         214|  5.5688e+00|  4.9768e-09|  7.6965e-01|  5.0000e-01|  5.0000e-01|  5.0000e-01|   -6.170882|   -6.318809|   -6.799550|   -6.400994|   -6.415353|   -8.402435|    2.057470|
|         215|  5.5685e+00|  4.9768e-09|  7.6965e-01|  5.0000e-01|  5.0000e-01|  5.0000e-01|   -6.170971|   -6.319191|   -6.799304|   -6.401020|   -6.415590|   -8.402727|    2.057484|
|         216|  5.5677e+00|  4.9767e-09|  7.6965e-01|  5.0000e-01|  5.0000e-01|  5.0000e-01|   -6.171043|   -6.319555|   -6.799057|   -6.401036|   -6.415816|   -8.403023|    2.057497|
|         217|  5.5669e+00|  4.9766e-09|  7.6965e-01|  5.0000e-01|  5.0000e-01|  5.0000e-01|   -6.171098|   -6.319899|   -6.798808|   -6.401041|   -6.416031|   -8.403322|    2.057511|
|         218|  5.5661e+00|  4.9766e-09|  7.6965e-01|  5.0000e-01|  5.0000e-01|  5.0000e-01|   -6.171137|   -6.320223|   -6.798559|   -6.401035|   -6.416234|   -8.403625|    2.057524|
|         219|  5.5656e+00|  4.9765e-09|  7.6965e-01|  5.0000e-01|  5.0000e-01|  5.0000e-01|   -6.171160|   -6.320528|   -6.798309|   -6.401018|   -6.416427|   -8.403930|    2.057538|
|         220|  5.5652e+00|  4.9764e-09|  7.6965e-01|  5.0000e-01|  5.0000e-01|  5.0000e-01|   -6.171165|   -6.320813|   -6.798059|   -6.400990|   -6.416608|   -8.404238|    2.057551|
|         221|  5.5647e+00|  4.9763e-09|  7.6965e-01|  5.0000e-01|  5.0000e-01|  5.0000e-01|   -6.171154|   -6.321078|   -6.797807|   -6.400952|   -6.416778|   -8.404550|    2.057564|
|         222|  5.5640e+00|  4.9763e-09|  7.6965e-01|  5.0000e-01|  5.0000e-01|  5.0000e-01|   -6.171126|   -6.321324|   -6.797555|   -6.400902|   -6.416937|   -8.404864|    2.057578|
|         223|  5.5631e+00|  4.9762e-09|  7.6965e-01|  5.0000e-01|  5.0000e-01|  5.0000e-01|   -6.171082|   -6.321550|   -6.797302|   -6.400842|   -6.417084|   -8.405182|    2.057591|
|         224|  5.5627e+00|  4.9761e-09|  7.6965e-01|  5.0000e-01|  5.0000e-01|  5.0000e-01|   -6.171021|   -6.321756|   -6.797048|   -6.400772|   -6.417220|   -8.405502|    2.057604|
|         225|  5.5621e+00|  4.9761e-09|  7.6965e-01|  5.0000e-01|  5.0000e-01|  5.0000e-01|   -6.170944|   -6.321941|   -6.796793|   -6.400691|   -6.417345|   -8.405826|    2.057617|
|         226|  5.5616e+00|  4.9760e-09|  7.6965e-01|  5.0000e-01|  5.0000e-01|  5.0000e-01|   -6.170851|   -6.322108|   -6.796538|   -6.400599|   -6.417459|   -8.406152|    2.057630|
|         227|  5.5611e+00|  4.9759e-09|  7.6965e-01|  5.0000e-01|  5.0000e-01|  5.0000e-01|   -6.170741|   -6.322254|   -6.796282|   -6.400497|   -6.417562|   -8.406481|    2.057643|
|         228|  5.5605e+00|  4.9759e-09|  7.6965e-01|  5.0000e-01|  5.0000e-01|  5.0000e-01|   -6.170614|   -6.322380|   -6.796026|   -6.400385|   -6.417653|   -8.406814|    2.057656|
|         229|  5.5598e+00|  4.9758e-09|  7.6965e-01|  5.0000e-01|  5.0000e-01|  5.0000e-01|   -6.170472|   -6.322486|   -6.795769|   -6.400261|   -6.417732|   -8.407149|    2.057669|
|         230|  5.5593e+00|  4.9757e-09|  7.6965e-01|  5.0000e-01|  5.0000e-01|  5.0000e-01|   -6.170313|   -6.322572|   -6.795511|   -6.400128|   -6.417801|   -8.407487|    2.057682|
|         231|  5.5588e+00|  4.9756e-09|  7.6965e-01|  5.0000e-01|  5.0000e-01|  5.0000e-01|   -6.170138|   -6.322638|   -6.795253|   -6.399984|   -6.417858|   -8.407828|    2.057695|
|         232|  5.5585e+00|  4.9756e-09|  7.6965e-01|  5.0000e-01|  5.0000e-01|  5.0000e-01|   -6.169947|   -6.322684|   -6.794994|   -6.399830|   -6.417904|   -8.408172|    2.057708|
|         233|  5.5583e+00|  4.9755e-09|  7.6965e-01|  5.0000e-01|  5.0000e-01|  5.0000e-01|   -6.169740|   -6.322710|   -6.794735|   -6.399666|   -6.417939|   -8.408519|    2.057721|
|         234|  5.5573e+00|  4.9754e-09|  7.6965e-01|  5.0000e-01|  5.0000e-01|  5.0000e-01|   -6.169518|   -6.322716|   -6.794475|   -6.399492|   -6.417962|   -8.408869|    2.057733|
|         235|  5.5572e+00|  4.9754e-09|  7.6965e-01|  5.0000e-01|  5.0000e-01|  5.0000e-01|   -6.169279|   -6.322701|   -6.794214|   -6.399308|   -6.417974|   -8.409221|    2.057746|
|         236|  5.5566e+00|  4.9753e-09|  7.6965e-01|  5.0000e-01|  5.0000e-01|  5.0000e-01|   -6.169025|   -6.322667|   -6.793954|   -6.399114|   -6.417975|   -8.409576|    2.057759|
|         237|  5.5558e+00|  4.9752e-09|  7.6965e-01|  5.0000e-01|  5.0000e-01|  5.0000e-01|   -6.168755|   -6.322613|   -6.793693|   -6.398909|   -6.417964|   -8.409934|    2.057771|
|         238|  5.5553e+00|  4.9752e-09|  7.6965e-01|  5.0000e-01|  5.0000e-01|  5.0000e-01|   -6.168469|   -6.322539|   -6.793431|   -6.398695|   -6.417942|   -8.410295|    2.057784|
|         239|  5.5550e+00|  4.9751e-09|  7.6965e-01|  5.0000e-01|  5.0000e-01|  5.0000e-01|   -6.168168|   -6.322444|   -6.793169|   -6.398471|   -6.417908|   -8.410658|    2.057796|
|         240|  5.5548e+00|  4.9750e-09|  7.6965e-01|  5.0000e-01|  5.0000e-01|  5.0000e-01|   -6.167851|   -6.322330|   -6.792906|   -6.398236|   -6.417863|   -8.411024|    2.057808|
|         241|  5.5547e+00|  4.9749e-09|  7.6965e-01|  5.0000e-01|  5.0000e-01|  5.0000e-01|   -6.167518|   -6.322195|   -6.792643|   -6.397992|   -6.417807|   -8.411393|    2.057821|
|         242|  5.5544e+00|  4.9749e-09|  7.6965e-01|  5.0000e-01|  5.0000e-01|  5.0000e-01|   -6.167170|   -6.322040|   -6.792380|   -6.397737|   -6.417738|   -8.411765|    2.057833|
|         243|  5.5538e+00|  4.9748e-09|  7.6965e-01|  5.0000e-01|  5.0000e-01|  5.0000e-01|   -6.166806|   -6.321866|   -6.792116|   -6.397473|   -6.417659|   -8.412139|    2.057845|
|         244|  5.5532e+00|  4.9747e-09|  7.6965e-01|  5.0000e-01|  5.0000e-01|  5.0000e-01|   -6.166428|   -6.321672|   -6.791852|   -6.397199|   -6.417568|   -8.412516|    2.057857|
|         245|  5.5529e+00|  4.9747e-09|  7.6965e-01|  5.0000e-01|  5.0000e-01|  5.0000e-01|   -6.166035|   -6.321457|   -6.791588|   -6.396915|   -6.417466|   -8.412895|    2.057870|
|         246|  5.5524e+00|  4.9746e-09|  7.6965e-01|  5.0000e-01|  5.0000e-01|  5.0000e-01|   -6.165626|   -6.321224|   -6.791324|   -6.396621|   -6.417352|   -8.413277|    2.057882|
|         247|  5.5518e+00|  4.9745e-09|  7.6965e-01|  5.0000e-01|  5.0000e-01|  5.0000e-01|   -6.165203|   -6.320970|   -6.791059|   -6.396318|   -6.417227|   -8.413662|    2.057894|
|         248|  5.5515e+00|  4.9745e-09|  7.6965e-01|  5.0000e-01|  5.0000e-01|  5.0000e-01|   -6.164766|   -6.320697|   -6.790794|   -6.396006|   -6.417091|   -8.414049|    2.057906|
|         249|  5.5512e+00|  4.9744e-09|  7.6965e-01|  5.0000e-01|  5.0000e-01|  5.0000e-01|   -6.164314|   -6.320405|   -6.790530|   -6.395683|   -6.416943|   -8.414438|    2.057918|
|         250|  5.5508e+00|  4.9743e-09|  7.6965e-01|  5.0000e-01|  5.0000e-01|  5.0000e-01|   -6.163847|   -6.320092|   -6.790265|   -6.395352|   -6.416784|   -8.414831|    2.057930|
|         251|  5.5505e+00|  4.9742e-09|  7.6965e-01|  5.0000e-01|  5.0000e-01|  5.0000e-01|   -6.163365|   -6.319761|   -6.790000|   -6.395010|   -6.416613|   -8.415225|    2.057941|
|         252|  5.5502e+00|  4.9742e-09|  7.6965e-01|  5.0000e-01|  5.0000e-01|  5.0000e-01|   -6.162869|   -6.319410|   -6.789734|   -6.394660|   -6.416431|   -8.415622|    2.057953|
|         253|  5.5499e+00|  4.9741e-09|  7.6965e-01|  5.0000e-01|  5.0000e-01|  5.0000e-01|   -6.162360|   -6.319040|   -6.789469|   -6.394300|   -6.416238|   -8.416022|    2.057965|
|         254|  5.5497e+00|  4.9740e-09|  7.6965e-01|  5.0000e-01|  5.0000e-01|  5.0000e-01|   -6.161836|   -6.318651|   -6.789204|   -6.393931|   -6.416034|   -8.416424|    2.057976|
|         255|  5.5493e+00|  4.9740e-09|  7.6965e-01|  5.0000e-01|  5.0000e-01|  5.0000e-01|   -6.161300|   -6.318244|   -6.788939|   -6.393553|   -6.415819|   -8.416828|    2.057988|
|         256|  5.5488e+00|  4.9739e-09|  7.6965e-01|  5.0000e-01|  5.0000e-01|  5.0000e-01|   -6.160749|   -6.317817|   -6.788674|   -6.393167|   -6.415593|   -8.417235|    2.058000|
|         257|  5.5485e+00|  4.9738e-09|  7.6965e-01|  5.0000e-01|  5.0000e-01|  5.0000e-01|   -6.160186|   -6.317373|   -6.788409|   -6.392771|   -6.415356|   -8.417644|    2.058011|
|         258|  5.5482e+00|  4.9738e-09|  7.6965e-01|  5.0000e-01|  5.0000e-01|  5.0000e-01|   -6.159610|   -6.316910|   -6.788144|   -6.392368|   -6.415109|   -8.418055|    2.058023|
|         259|  5.5481e+00|  4.9737e-09|  7.6965e-01|  5.0000e-01|  5.0000e-01|  5.0000e-01|   -6.159021|   -6.316428|   -6.787880|   -6.391955|   -6.414850|   -8.418469|    2.058034|
|         260|  5.5476e+00|  4.9736e-09|  7.6965e-01|  5.0000e-01|  5.0000e-01|  5.0000e-01|   -6.158419|   -6.315929|   -6.787616|   -6.391535|   -6.414581|   -8.418885|    2.058045|
|         261|  5.5471e+00|  4.9735e-09|  7.6965e-01|  5.0000e-01|  5.0000e-01|  5.0000e-01|   -6.157805|   -6.315412|   -6.787351|   -6.391106|   -6.414302|   -8.419303|    2.058056|
|         262|  5.5469e+00|  4.9735e-09|  7.6965e-01|  5.0000e-01|  5.0000e-01|  5.0000e-01|   -6.157179|   -6.314878|   -6.787087|   -6.390668|   -6.414012|   -8.419724|    2.058068|
|         263|  5.5466e+00|  4.9734e-09|  7.6965e-01|  5.0000e-01|  5.0000e-01|  5.0000e-01|   -6.156540|   -6.314326|   -6.786823|   -6.390222|   -6.413711|   -8.420147|    2.058079|
|         264|  5.5462e+00|  4.9733e-09|  7.6965e-01|  5.0000e-01|  5.0000e-01|  5.0000e-01|   -6.155890|   -6.313757|   -6.786560|   -6.389769|   -6.413400|   -8.420572|    2.058090|
|         265|  5.5456e+00|  4.9733e-09|  7.6965e-01|  5.0000e-01|  5.0000e-01|  5.0000e-01|   -6.155228|   -6.313172|   -6.786296|   -6.389307|   -6.413079|   -8.420999|    2.058101|
|         266|  5.5451e+00|  4.9732e-09|  7.6965e-01|  5.0000e-01|  5.0000e-01|  5.0000e-01|   -6.154554|   -6.312570|   -6.786033|   -6.388838|   -6.412748|   -8.421428|    2.058112|
|         267|  5.5445e+00|  4.9731e-09|  7.6965e-01|  5.0000e-01|  5.0000e-01|  5.0000e-01|   -6.153870|   -6.311951|   -6.785771|   -6.388361|   -6.412407|   -8.421860|    2.058123|
|         268|  5.5441e+00|  4.9731e-09|  7.6965e-01|  5.0000e-01|  5.0000e-01|  5.0000e-01|   -6.153174|   -6.311317|   -6.785508|   -6.387876|   -6.412055|   -8.422293|    2.058134|
|         269|  5.5438e+00|  4.9730e-09|  7.6965e-01|  5.0000e-01|  5.0000e-01|  5.0000e-01|   -6.152467|   -6.310667|   -6.785247|   -6.387383|   -6.411694|   -8.422729|    2.058145|
|         270|  5.5437e+00|  4.9729e-09|  7.6965e-01|  5.0000e-01|  5.0000e-01|  5.0000e-01|   -6.151749|   -6.310001|   -6.784985|   -6.386884|   -6.411323|   -8.423167|    2.058155|
|         271|  5.5432e+00|  4.9728e-09|  7.6965e-01|  5.0000e-01|  5.0000e-01|  5.0000e-01|   -6.151022|   -6.309320|   -6.784725|   -6.386377|   -6.410943|   -8.423606|    2.058166|
|         272|  5.5430e+00|  4.9728e-09|  7.6965e-01|  5.0000e-01|  5.0000e-01|  5.0000e-01|   -6.150284|   -6.308624|   -6.784465|   -6.385863|   -6.410554|   -8.424048|    2.058177|
|         273|  5.5427e+00|  4.9727e-09|  7.6965e-01|  5.0000e-01|  5.0000e-01|  5.0000e-01|   -6.149536|   -6.307913|   -6.784206|   -6.385343|   -6.410155|   -8.424492|    2.058187|
|         274|  5.5428e+00|  4.9726e-09|  7.6965e-01|  5.0000e-01|  5.0000e-01|  5.0000e-01|   -6.148778|   -6.307187|   -6.783947|   -6.384815|   -6.409746|   -8.424938|    2.058198|
|         275|  5.5426e+00|  4.9726e-09|  7.6965e-01|  5.0000e-01|  5.0000e-01|  5.0000e-01|   -6.148011|   -6.306448|   -6.783689|   -6.384281|   -6.409329|   -8.425385|    2.058208|
|         276|  5.5422e+00|  4.9725e-09|  7.6965e-01|  5.0000e-01|  5.0000e-01|  5.0000e-01|   -6.147235|   -6.305694|   -6.783432|   -6.383740|   -6.408904|   -8.425835|    2.058219|
|         277|  5.5422e+00|  4.9724e-09|  7.6965e-01|  5.0000e-01|  5.0000e-01|  5.0000e-01|   -6.146450|   -6.304927|   -6.783176|   -6.383194|   -6.408469|   -8.426286|    2.058229|
|         278|  5.5422e+00|  4.9724e-09|  7.6965e-01|  5.0000e-01|  5.0000e-01|  5.0000e-01|   -6.145656|   -6.304147|   -6.782921|   -6.382641|   -6.408026|   -8.426740|    2.058239|
|         279|  5.5418e+00|  4.9723e-09|  7.6965e-01|  5.0000e-01|  5.0000e-01|  5.0000e-01|   -6.144853|   -6.303354|   -6.782667|   -6.382081|   -6.407575|   -8.427195|    2.058250|
|         280|  5.5412e+00|  4.9722e-09|  7.6965e-01|  5.0000e-01|  5.0000e-01|  5.0000e-01|   -6.144042|   -6.302547|   -6.782413|   -6.381515|   -6.407114|   -8.427652|    2.058260|
|         281|  5.5412e+00|  4.9722e-09|  7.6965e-01|  5.0000e-01|  5.0000e-01|  5.0000e-01|   -6.143222|   -6.301728|   -6.782160|   -6.380944|   -6.406646|   -8.428111|    2.058270|
|         282|  5.5410e+00|  4.9721e-09|  7.6965e-01|  5.0000e-01|  5.0000e-01|  5.0000e-01|   -6.142394|   -6.300896|   -6.781908|   -6.380366|   -6.406169|   -8.428571|    2.058280|
|         283|  5.5406e+00|  4.9720e-09|  7.6965e-01|  5.0000e-01|  5.0000e-01|  5.0000e-01|   -6.141558|   -6.300053|   -6.781657|   -6.379784|   -6.405685|   -8.429034|    2.058290|
|         284|  5.5401e+00|  4.9719e-09|  7.6965e-01|  5.0000e-01|  5.0000e-01|  5.0000e-01|   -6.140715|   -6.299198|   -6.781408|   -6.379195|   -6.405193|   -8.429498|    2.058300|
|         285|  5.5399e+00|  4.9719e-09|  7.6965e-01|  5.0000e-01|  5.0000e-01|  5.0000e-01|   -6.139864|   -6.298331|   -6.781159|   -6.378601|   -6.404693|   -8.429964|    2.058310|
|         286|  5.5397e+00|  4.9718e-09|  7.6965e-01|  5.0000e-01|  5.0000e-01|  5.0000e-01|   -6.139006|   -6.297452|   -6.780912|   -6.378002|   -6.404185|   -8.430431|    2.058320|
|         287|  5.5395e+00|  4.9717e-09|  7.6965e-01|  5.0000e-01|  5.0000e-01|  5.0000e-01|   -6.138141|   -6.296563|   -6.780665|   -6.377398|   -6.403670|   -8.430900|    2.058330|
|         288|  5.5391e+00|  4.9717e-09|  7.6965e-01|  5.0000e-01|  5.0000e-01|  5.0000e-01|   -6.137269|   -6.295663|   -6.780420|   -6.376788|   -6.403147|   -8.431371|    2.058339|
|         289|  5.5390e+00|  4.9716e-09|  7.6965e-01|  5.0000e-01|  5.0000e-01|  5.0000e-01|   -6.136390|   -6.294752|   -6.780176|   -6.376174|   -6.402617|   -8.431844|    2.058349|
|         290|  5.5389e+00|  4.9715e-09|  7.6965e-01|  5.0000e-01|  5.0000e-01|  5.0000e-01|   -6.135505|   -6.293831|   -6.779933|   -6.375555|   -6.402080|   -8.432318|    2.058359|
|         291|  5.5386e+00|  4.9715e-09|  7.6965e-01|  5.0000e-01|  5.0000e-01|  5.0000e-01|   -6.134614|   -6.292900|   -6.779691|   -6.374931|   -6.401537|   -8.432793|    2.058368|
|         292|  5.5383e+00|  4.9714e-09|  7.6965e-01|  5.0000e-01|  5.0000e-01|  5.0000e-01|   -6.133717|   -6.291959|   -6.779451|   -6.374303|   -6.400986|   -8.433270|    2.058378|
|         293|  5.5381e+00|  4.9713e-09|  7.6965e-01|  5.0000e-01|  5.0000e-01|  5.0000e-01|   -6.132814|   -6.291008|   -6.779212|   -6.373670|   -6.400428|   -8.433749|    2.058387|
|         294|  5.5379e+00|  4.9712e-09|  7.6965e-01|  5.0000e-01|  5.0000e-01|  5.0000e-01|   -6.131904|   -6.290048|   -6.778974|   -6.373033|   -6.399864|   -8.434229|    2.058396|
|         295|  5.5374e+00|  4.9712e-09|  7.6965e-01|  5.0000e-01|  5.0000e-01|  5.0000e-01|   -6.130989|   -6.289079|   -6.778737|   -6.372392|   -6.399293|   -8.434711|    2.058406|
|         296|  5.5371e+00|  4.9711e-09|  7.6965e-01|  5.0000e-01|  5.0000e-01|  5.0000e-01|   -6.130069|   -6.288100|   -6.778501|   -6.371746|   -6.398715|   -8.435194|    2.058415|
|         297|  5.5370e+00|  4.9710e-09|  7.6965e-01|  5.0000e-01|  5.0000e-01|  5.0000e-01|   -6.129144|   -6.287114|   -6.778267|   -6.371096|   -6.398131|   -8.435678|    2.058424|
|         298|  5.5367e+00|  4.9710e-09|  7.6965e-01|  5.0000e-01|  5.0000e-01|  5.0000e-01|   -6.128213|   -6.286118|   -6.778035|   -6.370442|   -6.397541|   -8.436164|    2.058433|
|         299|  5.5366e+00|  4.9709e-09|  7.6965e-01|  5.0000e-01|  5.0000e-01|  5.0000e-01|   -6.127277|   -6.285115|   -6.777804|   -6.369784|   -6.396945|   -8.436651|    2.058442|
|         300|  5.5360e+00|  4.9708e-09|  7.6965e-01|  5.0000e-01|  5.0000e-01|  5.0000e-01|   -6.126337|   -6.284104|   -6.777574|   -6.369123|   -6.396342|   -8.437139|    2.058451|
+-----------------------------------------------------------------------+
|        File Writing Summary       |              Filename             |
+-----------------------------------------------------------------------+
|SU2 binary restart                 |restart_flow.dat                   |
|Paraview                           |flow.vtu                           |
|Paraview surface                   |surface_flow.vtu                   |
+-----------------------------------------------------------------------+
+-------------------------------------------------------------------------------------------------------------------------------------------------------------------------------------+
|  Inner_Iter|   Time(sec)|      Min DT|      Max DT|     Min CFL|     Max CFL|     Avg CFL|    rms[Rho]|   rms[RhoU]|   rms[RhoV]|   rms[RhoW]|   rms[RhoE]|     rms[nu]|          CD|
+-------------------------------------------------------------------------------------------------------------------------------------------------------------------------------------+
|         301|  5.6159e+00|  4.9708e-09|  7.6965e-01|  5.0000e-01|  5.0000e-01|  5.0000e-01|   -6.125393|   -6.283085|   -6.777346|   -6.368458|   -6.395734|   -8.437629|    2.058460|
|         302|  5.6178e+00|  4.9707e-09|  7.6965e-01|  5.0000e-01|  5.0000e-01|  5.0000e-01|   -6.124444|   -6.282059|   -6.777120|   -6.367790|   -6.395121|   -8.438120|    2.058469|
|         303|  5.6176e+00|  4.9706e-09|  7.6965e-01|  5.0000e-01|  5.0000e-01|  5.0000e-01|   -6.123492|   -6.281026|   -6.776895|   -6.367119|   -6.394502|   -8.438613|    2.058478|
|         304|  5.6181e+00|  4.9705e-09|  7.6965e-01|  5.0000e-01|  5.0000e-01|  5.0000e-01|   -6.122536|   -6.279986|   -6.776672|   -6.366444|   -6.393878|   -8.439106|    2.058487|
|         305|  5.6180e+00|  4.9705e-09|  7.6965e-01|  5.0000e-01|  5.0000e-01|  5.0000e-01|   -6.121575|   -6.278939|   -6.776451|   -6.365767|   -6.393249|   -8.439601|    2.058495|
|         306|  5.6179e+00|  4.9704e-09|  7.6965e-01|  5.0000e-01|  5.0000e-01|  5.0000e-01|   -6.120612|   -6.277886|   -6.776231|   -6.365086|   -6.392614|   -8.440097|    2.058504|
|         307|  5.6176e+00|  4.9703e-09|  7.6965e-01|  5.0000e-01|  5.0000e-01|  5.0000e-01|   -6.119645|   -6.276827|   -6.776013|   -6.364403|   -6.391975|   -8.440594|    2.058513|
|         308|  5.6172e+00|  4.9703e-09|  7.6965e-01|  5.0000e-01|  5.0000e-01|  5.0000e-01|   -6.118675|   -6.275762|   -6.775797|   -6.363717|   -6.391330|   -8.441092|    2.058521|
|         309|  5.6168e+00|  4.9702e-09|  7.6965e-01|  5.0000e-01|  5.0000e-01|  5.0000e-01|   -6.117702|   -6.274691|   -6.775583|   -6.363029|   -6.390681|   -8.441592|    2.058530|
|         310|  5.6163e+00|  4.9701e-09|  7.6965e-01|  5.0000e-01|  5.0000e-01|  5.0000e-01|   -6.116727|   -6.273615|   -6.775370|   -6.362338|   -6.390027|   -8.442092|    2.058538|
|         311|  5.6160e+00|  4.9701e-09|  7.6965e-01|  5.0000e-01|  5.0000e-01|  5.0000e-01|   -6.115749|   -6.272534|   -6.775159|   -6.361645|   -6.389369|   -8.442594|    2.058546|
|         312|  5.6156e+00|  4.9700e-09|  7.6965e-01|  5.0000e-01|  5.0000e-01|  5.0000e-01|   -6.114768|   -6.271447|   -6.774950|   -6.360950|   -6.388707|   -8.443096|    2.058555|
|         313|  5.6150e+00|  4.9699e-09|  7.6965e-01|  5.0000e-01|  5.0000e-01|  5.0000e-01|   -6.113786|   -6.270356|   -6.774742|   -6.360253|   -6.388040|   -8.443600|    2.058563|
|         314|  5.6145e+00|  4.9698e-09|  7.6965e-01|  5.0000e-01|  5.0000e-01|  5.0000e-01|   -6.112801|   -6.269260|   -6.774537|   -6.359554|   -6.387370|   -8.444104|    2.058571|
|         315|  5.6140e+00|  4.9698e-09|  7.6965e-01|  5.0000e-01|  5.0000e-01|  5.0000e-01|   -6.111814|   -6.268160|   -6.774333|   -6.358853|   -6.386695|   -8.444610|    2.058579|
|         316|  5.6131e+00|  4.9697e-09|  7.6965e-01|  5.0000e-01|  5.0000e-01|  5.0000e-01|   -6.110826|   -6.267056|   -6.774132|   -6.358151|   -6.386017|   -8.445116|    2.058587|
|         317|  5.6125e+00|  4.9696e-09|  7.6965e-01|  5.0000e-01|  5.0000e-01|  5.0000e-01|   -6.109836|   -6.265949|   -6.773932|   -6.357447|   -6.385336|   -8.445624|    2.058595|
|         318|  5.6120e+00|  4.9696e-09|  7.6965e-01|  5.0000e-01|  5.0000e-01|  5.0000e-01|   -6.108845|   -6.264837|   -6.773734|   -6.356741|   -6.384650|   -8.446132|    2.058603|
|         319|  5.6115e+00|  4.9695e-09|  7.6965e-01|  5.0000e-01|  5.0000e-01|  5.0000e-01|   -6.107853|   -6.263722|   -6.773539|   -6.356034|   -6.383962|   -8.446641|    2.058611|
|         320|  5.6108e+00|  4.9694e-09|  7.6965e-01|  5.0000e-01|  5.0000e-01|  5.0000e-01|   -6.106859|   -6.262604|   -6.773344|   -6.355326|   -6.383270|   -8.447151|    2.058618|
|         321|  5.6103e+00|  4.9694e-09|  7.6965e-01|  5.0000e-01|  5.0000e-01|  5.0000e-01|   -6.105864|   -6.261483|   -6.773152|   -6.354617|   -6.382575|   -8.447661|    2.058626|
|         322|  5.6099e+00|  4.9693e-09|  7.6965e-01|  5.0000e-01|  5.0000e-01|  5.0000e-01|   -6.104869|   -6.260359|   -6.772962|   -6.353907|   -6.381877|   -8.448173|    2.058634|
|         323|  5.6094e+00|  4.9692e-09|  7.6965e-01|  5.0000e-01|  5.0000e-01|  5.0000e-01|   -6.103873|   -6.259233|   -6.772774|   -6.353196|   -6.381176|   -8.448685|    2.058641|
|         324|  5.6090e+00|  4.9691e-09|  7.6965e-01|  5.0000e-01|  5.0000e-01|  5.0000e-01|   -6.102877|   -6.258104|   -6.772588|   -6.352484|   -6.380473|   -8.449198|    2.058649|
|         325|  5.6085e+00|  4.9691e-09|  7.6965e-01|  5.0000e-01|  5.0000e-01|  5.0000e-01|   -6.101880|   -6.256973|   -6.772404|   -6.351772|   -6.379767|   -8.449711|    2.058656|
|         326|  5.6080e+00|  4.9690e-09|  7.6965e-01|  5.0000e-01|  5.0000e-01|  5.0000e-01|   -6.100883|   -6.255840|   -6.772222|   -6.351059|   -6.379058|   -8.450225|    2.058663|
|         327|  5.6078e+00|  4.9689e-09|  7.6965e-01|  5.0000e-01|  5.0000e-01|  5.0000e-01|   -6.099887|   -6.254705|   -6.772043|   -6.350346|   -6.378348|   -8.450740|    2.058671|
|         328|  5.6073e+00|  4.9689e-09|  7.6965e-01|  5.0000e-01|  5.0000e-01|  5.0000e-01|   -6.098889|   -6.253569|   -6.771865|   -6.349631|   -6.377634|   -8.451256|    2.058678|
|         329|  5.6068e+00|  4.9688e-09|  7.6965e-01|  5.0000e-01|  5.0000e-01|  5.0000e-01|   -6.097892|   -6.252431|   -6.771690|   -6.348917|   -6.376919|   -8.451772|    2.058685|
|         330|  5.6063e+00|  4.9687e-09|  7.6965e-01|  5.0000e-01|  5.0000e-01|  5.0000e-01|   -6.096896|   -6.251292|   -6.771517|   -6.348202|   -6.376201|   -8.452288|    2.058692|
|         331|  5.6058e+00|  4.9687e-09|  7.6965e-01|  5.0000e-01|  5.0000e-01|  5.0000e-01|   -6.095899|   -6.250151|   -6.771346|   -6.347487|   -6.375481|   -8.452805|    2.058699|
|         332|  5.6053e+00|  4.9686e-09|  7.6965e-01|  5.0000e-01|  5.0000e-01|  5.0000e-01|   -6.094903|   -6.249010|   -6.771179|   -6.346773|   -6.374760|   -8.453323|    2.058706|
|         333|  5.6049e+00|  4.9685e-09|  7.6965e-01|  5.0000e-01|  5.0000e-01|  5.0000e-01|   -6.093908|   -6.247868|   -6.771013|   -6.346058|   -6.374037|   -8.453841|    2.058713|
|         334|  5.6043e+00|  4.9684e-09|  7.6965e-01|  5.0000e-01|  5.0000e-01|  5.0000e-01|   -6.092914|   -6.246725|   -6.770850|   -6.345343|   -6.373312|   -8.454360|    2.058720|
|         335|  5.6036e+00|  4.9684e-09|  7.6965e-01|  5.0000e-01|  5.0000e-01|  5.0000e-01|   -6.091921|   -6.245581|   -6.770689|   -6.344629|   -6.372586|   -8.454879|    2.058727|
|         336|  5.6031e+00|  4.9683e-09|  7.6965e-01|  5.0000e-01|  5.0000e-01|  5.0000e-01|   -6.090929|   -6.244438|   -6.770531|   -6.343915|   -6.371859|   -8.455398|    2.058734|
|         337|  5.6033e+00|  4.9682e-09|  7.6965e-01|  5.0000e-01|  5.0000e-01|  5.0000e-01|   -6.089937|   -6.243294|   -6.770375|   -6.343201|   -6.371129|   -8.455918|    2.058740|
|         338|  5.6028e+00|  4.9682e-09|  7.6965e-01|  5.0000e-01|  5.0000e-01|  5.0000e-01|   -6.088947|   -6.242150|   -6.770221|   -6.342487|   -6.370399|   -8.456438|    2.058747|
|         339|  5.6026e+00|  4.9681e-09|  7.6965e-01|  5.0000e-01|  5.0000e-01|  5.0000e-01|   -6.087958|   -6.241006|   -6.770070|   -6.341774|   -6.369667|   -8.456959|    2.058753|
|         340|  5.6022e+00|  4.9680e-09|  7.6965e-01|  5.0000e-01|  5.0000e-01|  5.0000e-01|   -6.086971|   -6.239863|   -6.769921|   -6.341061|   -6.368934|   -8.457480|    2.058760|
|         341|  5.6017e+00|  4.9679e-09|  7.6965e-01|  5.0000e-01|  5.0000e-01|  5.0000e-01|   -6.085984|   -6.238720|   -6.769774|   -6.340349|   -6.368200|   -8.458001|    2.058766|
|         342|  5.6013e+00|  4.9679e-09|  7.6965e-01|  5.0000e-01|  5.0000e-01|  5.0000e-01|   -6.085000|   -6.237577|   -6.769630|   -6.339637|   -6.367465|   -8.458522|    2.058773|
|         343|  5.6009e+00|  4.9678e-09|  7.6965e-01|  5.0000e-01|  5.0000e-01|  5.0000e-01|   -6.084016|   -6.236435|   -6.769488|   -6.338926|   -6.366729|   -8.459044|    2.058779|
|         344|  5.6005e+00|  4.9677e-09|  7.6965e-01|  5.0000e-01|  5.0000e-01|  5.0000e-01|   -6.083035|   -6.235294|   -6.769349|   -6.338216|   -6.365992|   -8.459565|    2.058785|
|         345|  5.6004e+00|  4.9677e-09|  7.6965e-01|  5.0000e-01|  5.0000e-01|  5.0000e-01|   -6.082056|   -6.234154|   -6.769212|   -6.337507|   -6.365255|   -8.460087|    2.058791|
|         346|  5.6000e+00|  4.9676e-09|  7.6965e-01|  5.0000e-01|  5.0000e-01|  5.0000e-01|   -6.081078|   -6.233015|   -6.769077|   -6.336798|   -6.364517|   -8.460609|    2.058797|
|         347|  5.5996e+00|  4.9675e-09|  7.6965e-01|  5.0000e-01|  5.0000e-01|  5.0000e-01|   -6.080103|   -6.231877|   -6.768945|   -6.336091|   -6.363779|   -8.461131|    2.058803|
|         348|  5.5989e+00|  4.9675e-09|  7.6965e-01|  5.0000e-01|  5.0000e-01|  5.0000e-01|   -6.079129|   -6.230741|   -6.768816|   -6.335385|   -6.363040|   -8.461654|    2.058809|
|         349|  5.5983e+00|  4.9674e-09|  7.6965e-01|  5.0000e-01|  5.0000e-01|  5.0000e-01|   -6.078158|   -6.229606|   -6.768689|   -6.334680|   -6.362301|   -8.462176|    2.058815|
[...]
|       10945|  5.8051e+00|  4.4137e-09|  7.6965e-01|  5.0000e-01|  5.0000e-01|  5.0000e-01|   -6.376930|   -6.522869|   -7.008956|   -6.738432|   -6.674358|   -9.031450|    2.052439|
|       10946|  5.8051e+00|  4.4137e-09|  7.6965e-01|  5.0000e-01|  5.0000e-01|  5.0000e-01|   -6.376185|   -6.521973|   -7.008497|   -6.737787|   -6.673704|   -9.031014|    2.052423|
|       10947|  5.8051e+00|  4.4136e-09|  7.6965e-01|  5.0000e-01|  5.0000e-01|  5.0000e-01|   -6.375438|   -6.521076|   -7.008038|   -6.737140|   -6.673047|   -9.030579|    2.052407|
|       10948|  5.8051e+00|  4.4136e-09|  7.6965e-01|  5.0000e-01|  5.0000e-01|  5.0000e-01|   -6.374691|   -6.520178|   -7.007578|   -6.736492|   -6.672388|   -9.030144|    2.052391|
|       10949|  5.8051e+00|  4.4135e-09|  7.6965e-01|  5.0000e-01|  5.0000e-01|  5.0000e-01|   -6.373943|   -6.519277|   -7.007118|   -6.735843|   -6.671727|   -9.029709|    2.052375|
|       10950|  5.8051e+00|  4.4135e-09|  7.6965e-01|  5.0000e-01|  5.0000e-01|  5.0000e-01|   -6.373194|   -6.518376|   -7.006657|   -6.735194|   -6.671064|   -9.029275|    2.052359|
+-----------------------------------------------------------------------+
|        File Writing Summary       |              Filename             |
+-----------------------------------------------------------------------+
|SU2 binary restart                 |restart_flow.dat                   |
|Paraview                           |flow.vtu                           |
|Paraview surface                   |surface_flow.vtu                   |
+-----------------------------------------------------------------------+
+-------------------------------------------------------------------------------------------------------------------------------------------------------------------------------------+
|  Inner_Iter|   Time(sec)|      Min DT|      Max DT|     Min CFL|     Max CFL|     Avg CFL|    rms[Rho]|   rms[RhoU]|   rms[RhoV]|   rms[RhoW]|   rms[RhoE]|     rms[nu]|          CD|
+-------------------------------------------------------------------------------------------------------------------------------------------------------------------------------------+
|       10951|  5.8075e+00|  4.4134e-09|  7.6965e-01|  5.0000e-01|  5.0000e-01|  5.0000e-01|   -6.372444|   -6.517473|   -7.006195|   -6.734543|   -6.670399|   -9.028842|    2.052343|
|       10952|  5.8075e+00|  4.4134e-09|  7.6965e-01|  5.0000e-01|  5.0000e-01|  5.0000e-01|   -6.371694|   -6.516568|   -7.005734|   -6.733891|   -6.669732|   -9.028409|    2.052327|
|       10953|  5.8075e+00|  4.4134e-09|  7.6965e-01|  5.0000e-01|  5.0000e-01|  5.0000e-01|   -6.370943|   -6.515663|   -7.005271|   -6.733239|   -6.669064|   -9.027976|    2.052311|
|       10954|  5.8075e+00|  4.4133e-09|  7.6965e-01|  5.0000e-01|  5.0000e-01|  5.0000e-01|   -6.370191|   -6.514757|   -7.004809|   -6.732586|   -6.668394|   -9.027544|    2.052296|
|       10955|  5.8075e+00|  4.4133e-09|  7.6965e-01|  5.0000e-01|  5.0000e-01|  5.0000e-01|   -6.369439|   -6.513849|   -7.004346|   -6.731932|   -6.667721|   -9.027113|    2.052280|
|       10956|  5.8075e+00|  4.4132e-09|  7.6965e-01|  5.0000e-01|  5.0000e-01|  5.0000e-01|   -6.368687|   -6.512941|   -7.003883|   -6.731277|   -6.667048|   -9.026682|    2.052264|
|       10957|  5.8075e+00|  4.4132e-09|  7.6965e-01|  5.0000e-01|  5.0000e-01|  5.0000e-01|   -6.367934|   -6.512031|   -7.003420|   -6.730621|   -6.666373|   -9.026251|    2.052249|
|       10958|  5.8076e+00|  4.4131e-09|  7.6965e-01|  5.0000e-01|  5.0000e-01|  5.0000e-01|   -6.367180|   -6.511121|   -7.002957|   -6.729965|   -6.665696|   -9.025821|    2.052233|
|       10959|  5.8076e+00|  4.4131e-09|  7.6965e-01|  5.0000e-01|  5.0000e-01|  5.0000e-01|   -6.366427|   -6.510210|   -7.002493|   -6.729309|   -6.665018|   -9.025392|    2.052218|
|       10960|  5.8076e+00|  4.4130e-09|  7.6965e-01|  5.0000e-01|  5.0000e-01|  5.0000e-01|   -6.365674|   -6.509299|   -7.002029|   -6.728653|   -6.664339|   -9.024963|    2.052202|
|       10961|  5.8075e+00|  4.4130e-09|  7.6965e-01|  5.0000e-01|  5.0000e-01|  5.0000e-01|   -6.364920|   -6.508387|   -7.001565|   -6.727997|   -6.663658|   -9.024534|    2.052187|
|       10962|  5.8075e+00|  4.4130e-09|  7.6965e-01|  5.0000e-01|  5.0000e-01|  5.0000e-01|   -6.364166|   -6.507474|   -7.001101|   -6.727339|   -6.662976|   -9.024106|    2.052171|
|       10963|  5.8075e+00|  4.4129e-09|  7.6965e-01|  5.0000e-01|  5.0000e-01|  5.0000e-01|   -6.363412|   -6.506561|   -7.000637|   -6.726682|   -6.662293|   -9.023679|    2.052156|
|       10964|  5.8075e+00|  4.4129e-09|  7.6965e-01|  5.0000e-01|  5.0000e-01|  5.0000e-01|   -6.362658|   -6.505647|   -7.000173|   -6.726024|   -6.661608|   -9.023253|    2.052141|
|       10965|  5.8075e+00|  4.4128e-09|  7.6965e-01|  5.0000e-01|  5.0000e-01|  5.0000e-01|   -6.361904|   -6.504734|   -6.999709|   -6.725365|   -6.660923|   -9.022827|    2.052125|
|       10966|  5.8075e+00|  4.4128e-09|  7.6965e-01|  5.0000e-01|  5.0000e-01|  5.0000e-01|   -6.361149|   -6.503819|   -6.999245|   -6.724706|   -6.660235|   -9.022401|    2.052110|
|       10967|  5.8075e+00|  4.4127e-09|  7.6965e-01|  5.0000e-01|  5.0000e-01|  5.0000e-01|   -6.360396|   -6.502905|   -6.998781|   -6.724049|   -6.659548|   -9.021976|    2.052095|
|       10968|  5.8076e+00|  4.4127e-09|  7.6965e-01|  5.0000e-01|  5.0000e-01|  5.0000e-01|   -6.359642|   -6.501991|   -6.998317|   -6.723390|   -6.658859|   -9.021552|    2.052080|
|       10969|  5.8076e+00|  4.4127e-09|  7.6965e-01|  5.0000e-01|  5.0000e-01|  5.0000e-01|   -6.358888|   -6.501076|   -6.997852|   -6.722731|   -6.658169|   -9.021129|    2.052065|
|       10970|  5.8076e+00|  4.4126e-09|  7.6965e-01|  5.0000e-01|  5.0000e-01|  5.0000e-01|   -6.358133|   -6.500162|   -6.997388|   -6.722071|   -6.657477|   -9.020706|    2.052050|
|       10971|  5.8076e+00|  4.4126e-09|  7.6965e-01|  5.0000e-01|  5.0000e-01|  5.0000e-01|   -6.357379|   -6.499247|   -6.996924|   -6.721410|   -6.656784|   -9.020284|    2.052035|
|       10972|  5.8075e+00|  4.4125e-09|  7.6965e-01|  5.0000e-01|  5.0000e-01|  5.0000e-01|   -6.356624|   -6.498332|   -6.996459|   -6.720749|   -6.656090|   -9.019862|    2.052020|
|       10973|  5.8075e+00|  4.4125e-09|  7.6965e-01|  5.0000e-01|  5.0000e-01|  5.0000e-01|   -6.355870|   -6.497417|   -6.995995|   -6.720087|   -6.655394|   -9.019442|    2.052005|
|       10974|  5.8075e+00|  4.4124e-09|  7.6965e-01|  5.0000e-01|  5.0000e-01|  5.0000e-01|   -6.355115|   -6.496502|   -6.995531|   -6.719424|   -6.654697|   -9.019021|    2.051990|
|       10975|  5.8075e+00|  4.4124e-09|  7.6965e-01|  5.0000e-01|  5.0000e-01|  5.0000e-01|   -6.354360|   -6.495587|   -6.995066|   -6.718761|   -6.654000|   -9.018602|    2.051975|
|       10976|  5.8075e+00|  4.4124e-09|  7.6965e-01|  5.0000e-01|  5.0000e-01|  5.0000e-01|   -6.353606|   -6.494673|   -6.994601|   -6.718098|   -6.653301|   -9.018183|    2.051960|
|       10977|  5.8075e+00|  4.4123e-09|  7.6965e-01|  5.0000e-01|  5.0000e-01|  5.0000e-01|   -6.352852|   -6.493758|   -6.994137|   -6.717434|   -6.652602|   -9.017765|    2.051945|
|       10978|  5.8074e+00|  4.4123e-09|  7.6965e-01|  5.0000e-01|  5.0000e-01|  5.0000e-01|   -6.352099|   -6.492844|   -6.993673|   -6.716771|   -6.651902|   -9.017348|    2.051931|
|       10979|  5.8074e+00|  4.4122e-09|  7.6965e-01|  5.0000e-01|  5.0000e-01|  5.0000e-01|   -6.351346|   -6.491930|   -6.993209|   -6.716108|   -6.651202|   -9.016931|    2.051916|
|       10980|  5.8074e+00|  4.4122e-09|  7.6965e-01|  5.0000e-01|  5.0000e-01|  5.0000e-01|   -6.350594|   -6.491017|   -6.992745|   -6.715445|   -6.650501|   -9.016516|    2.051901|
|       10981|  5.8074e+00|  4.4121e-09|  7.6965e-01|  5.0000e-01|  5.0000e-01|  5.0000e-01|   -6.349842|   -6.490104|   -6.992281|   -6.714781|   -6.649799|   -9.016101|    2.051887|
|       10982|  5.8074e+00|  4.4121e-09|  7.6965e-01|  5.0000e-01|  5.0000e-01|  5.0000e-01|   -6.349091|   -6.489192|   -6.991816|   -6.714117|   -6.649097|   -9.015686|    2.051872|
|       10983|  5.8074e+00|  4.4120e-09|  7.6965e-01|  5.0000e-01|  5.0000e-01|  5.0000e-01|   -6.348340|   -6.488280|   -6.991353|   -6.713454|   -6.648394|   -9.015273|    2.051858|
|       10984|  5.8074e+00|  4.4120e-09|  7.6965e-01|  5.0000e-01|  5.0000e-01|  5.0000e-01|   -6.347590|   -6.487369|   -6.990889|   -6.712790|   -6.647691|   -9.014860|    2.051843|
|       10985|  5.8073e+00|  4.4120e-09|  7.6965e-01|  5.0000e-01|  5.0000e-01|  5.0000e-01|   -6.346840|   -6.486458|   -6.990426|   -6.712127|   -6.646987|   -9.014448|    2.051829|
|       10986|  5.8073e+00|  4.4119e-09|  7.6965e-01|  5.0000e-01|  5.0000e-01|  5.0000e-01|   -6.346091|   -6.485549|   -6.989962|   -6.711463|   -6.646283|   -9.014037|    2.051814|
|       10987|  5.8073e+00|  4.4119e-09|  7.6965e-01|  5.0000e-01|  5.0000e-01|  5.0000e-01|   -6.345342|   -6.484640|   -6.989499|   -6.710800|   -6.645578|   -9.013626|    2.051800|
|       10988|  5.8073e+00|  4.4118e-09|  7.6965e-01|  5.0000e-01|  5.0000e-01|  5.0000e-01|   -6.344594|   -6.483732|   -6.989035|   -6.710136|   -6.644872|   -9.013217|    2.051786|
|       10989|  5.8073e+00|  4.4118e-09|  7.6965e-01|  5.0000e-01|  5.0000e-01|  5.0000e-01|   -6.343847|   -6.482824|   -6.988572|   -6.709473|   -6.644166|   -9.012808|    2.051772|
|       10990|  5.8073e+00|  4.4117e-09|  7.6965e-01|  5.0000e-01|  5.0000e-01|  5.0000e-01|   -6.343100|   -6.481917|   -6.988109|   -6.708810|   -6.643460|   -9.012400|    2.051757|
|       10991|  5.8073e+00|  4.4117e-09|  7.6965e-01|  5.0000e-01|  5.0000e-01|  5.0000e-01|   -6.342354|   -6.481012|   -6.987646|   -6.708147|   -6.642753|   -9.011993|    2.051743|
|       10992|  5.8073e+00|  4.4117e-09|  7.6965e-01|  5.0000e-01|  5.0000e-01|  5.0000e-01|   -6.341609|   -6.480107|   -6.987184|   -6.707484|   -6.642046|   -9.011586|    2.051729|
|       10993|  5.8073e+00|  4.4116e-09|  7.6965e-01|  5.0000e-01|  5.0000e-01|  5.0000e-01|   -6.340864|   -6.479203|   -6.986722|   -6.706822|   -6.641340|   -9.011181|    2.051715|
|       10994|  5.8073e+00|  4.4116e-09|  7.6965e-01|  5.0000e-01|  5.0000e-01|  5.0000e-01|   -6.340121|   -6.478301|   -6.986260|   -6.706160|   -6.640633|   -9.010776|    2.051701|
|       10995|  5.8073e+00|  4.4115e-09|  7.6965e-01|  5.0000e-01|  5.0000e-01|  5.0000e-01|   -6.339378|   -6.477399|   -6.985799|   -6.705498|   -6.639926|   -9.010372|    2.051687|
|       10996|  5.8073e+00|  4.4115e-09|  7.6965e-01|  5.0000e-01|  5.0000e-01|  5.0000e-01|   -6.338636|   -6.476499|   -6.985339|   -6.704837|   -6.639218|   -9.009969|    2.051673|
|       10997|  5.8073e+00|  4.4114e-09|  7.6965e-01|  5.0000e-01|  5.0000e-01|  5.0000e-01|   -6.337896|   -6.475600|   -6.984878|   -6.704176|   -6.638511|   -9.009567|    2.051659|
|       10998|  5.8073e+00|  4.4114e-09|  7.6965e-01|  5.0000e-01|  5.0000e-01|  5.0000e-01|   -6.337157|   -6.474702|   -6.984418|   -6.703516|   -6.637804|   -9.009166|    2.051646|
|       10999|  5.8073e+00|  4.4114e-09|  7.6965e-01|  5.0000e-01|  5.0000e-01|  5.0000e-01|   -6.336419|   -6.473806|   -6.983959|   -6.702857|   -6.637098|   -9.008765|    2.051632|
|       11000|  5.8073e+00|  4.4113e-09|  7.6965e-01|  5.0000e-01|  5.0000e-01|  5.0000e-01|   -6.335681|   -6.472911|   -6.983500|   -6.702197|   -6.636391|   -9.008366|    2.051618|
|       11001|  5.8073e+00|  4.4113e-09|  7.6965e-01|  5.0000e-01|  5.0000e-01|  5.0000e-01|   -6.334945|   -6.472017|   -6.983041|   -6.701538|   -6.635683|   -9.007967|    2.051605|
|       11002|  5.8073e+00|  4.4112e-09|  7.6965e-01|  5.0000e-01|  5.0000e-01|  5.0000e-01|   -6.334209|   -6.471124|   -6.982583|   -6.700879|   -6.634976|   -9.007569|    2.051591|
|       11003|  5.8072e+00|  4.4112e-09|  7.6965e-01|  5.0000e-01|  5.0000e-01|  5.0000e-01|   -6.333475|   -6.470233|   -6.982125|   -6.700221|   -6.634270|   -9.007173|    2.051577|
|       11004|  5.8072e+00|  4.4111e-09|  7.6965e-01|  5.0000e-01|  5.0000e-01|  5.0000e-01|   -6.332742|   -6.469344|   -6.981668|   -6.699564|   -6.633563|   -9.006777|    2.051564|
|       11005|  5.8072e+00|  4.4111e-09|  7.6965e-01|  5.0000e-01|  5.0000e-01|  5.0000e-01|   -6.332010|   -6.468456|   -6.981211|   -6.698908|   -6.632858|   -9.006382|    2.051550|
|       11006|  5.8072e+00|  4.4110e-09|  7.6965e-01|  5.0000e-01|  5.0000e-01|  5.0000e-01|   -6.331280|   -6.467570|   -6.980756|   -6.698253|   -6.632152|   -9.005987|    2.051537|
|       11007|  5.8072e+00|  4.4110e-09|  7.6965e-01|  5.0000e-01|  5.0000e-01|  5.0000e-01|   -6.330551|   -6.466686|   -6.980301|   -6.697598|   -6.631448|   -9.005594|    2.051524|
|       11008|  5.8072e+00|  4.4110e-09|  7.6965e-01|  5.0000e-01|  5.0000e-01|  5.0000e-01|   -6.329824|   -6.465803|   -6.979846|   -6.696945|   -6.630743|   -9.005202|    2.051510|
|       11009|  5.8072e+00|  4.4109e-09|  7.6965e-01|  5.0000e-01|  5.0000e-01|  5.0000e-01|   -6.329098|   -6.464922|   -6.979392|   -6.696292|   -6.630040|   -9.004811|    2.051497|
|       11010|  5.8071e+00|  4.4109e-09|  7.6965e-01|  5.0000e-01|  5.0000e-01|  5.0000e-01|   -6.328373|   -6.464043|   -6.978939|   -6.695641|   -6.629336|   -9.004420|    2.051484|
|       11011|  5.8071e+00|  4.4108e-09|  7.6965e-01|  5.0000e-01|  5.0000e-01|  5.0000e-01|   -6.327650|   -6.463166|   -6.978486|   -6.694990|   -6.628634|   -9.004031|    2.051471|
|       11012|  5.8071e+00|  4.4108e-09|  7.6965e-01|  5.0000e-01|  5.0000e-01|  5.0000e-01|   -6.326929|   -6.462291|   -6.978034|   -6.694341|   -6.627932|   -9.003642|    2.051458|
|       11013|  5.8071e+00|  4.4107e-09|  7.6965e-01|  5.0000e-01|  5.0000e-01|  5.0000e-01|   -6.326209|   -6.461417|   -6.977582|   -6.693692|   -6.627231|   -9.003254|    2.051445|
|       11014|  5.8071e+00|  4.4107e-09|  7.6965e-01|  5.0000e-01|  5.0000e-01|  5.0000e-01|   -6.325491|   -6.460546|   -6.977132|   -6.693045|   -6.626530|   -9.002868|    2.051432|
|       11015|  5.8071e+00|  4.4107e-09|  7.6965e-01|  5.0000e-01|  5.0000e-01|  5.0000e-01|   -6.324774|   -6.459676|   -6.976682|   -6.692398|   -6.625830|   -9.002482|    2.051419|
|       11016|  5.8071e+00|  4.4106e-09|  7.6965e-01|  5.0000e-01|  5.0000e-01|  5.0000e-01|   -6.324058|   -6.458808|   -6.976232|   -6.691753|   -6.625131|   -9.002097|    2.051406|
|       11017|  5.8071e+00|  4.4106e-09|  7.6965e-01|  5.0000e-01|  5.0000e-01|  5.0000e-01|   -6.323345|   -6.457943|   -6.975784|   -6.691109|   -6.624433|   -9.001713|    2.051393|
|       11018|  5.8071e+00|  4.4105e-09|  7.6965e-01|  5.0000e-01|  5.0000e-01|  5.0000e-01|   -6.322633|   -6.457079|   -6.975336|   -6.690466|   -6.623736|   -9.001331|    2.051380|
|       11019|  5.8071e+00|  4.4105e-09|  7.6965e-01|  5.0000e-01|  5.0000e-01|  5.0000e-01|   -6.321923|   -6.456218|   -6.974889|   -6.689824|   -6.623039|   -9.000949|    2.051368|
|       11020|  5.8071e+00|  4.4104e-09|  7.6965e-01|  5.0000e-01|  5.0000e-01|  5.0000e-01|   -6.321215|   -6.455358|   -6.974442|   -6.689184|   -6.622344|   -9.000568|    2.051355|
|       11021|  5.8071e+00|  4.4104e-09|  7.6965e-01|  5.0000e-01|  5.0000e-01|  5.0000e-01|   -6.320509|   -6.454501|   -6.973997|   -6.688545|   -6.621649|   -9.000188|    2.051342|
|       11022|  5.8070e+00|  4.4104e-09|  7.6965e-01|  5.0000e-01|  5.0000e-01|  5.0000e-01|   -6.319804|   -6.453646|   -6.973552|   -6.687907|   -6.620956|   -8.999809|    2.051330|
|       11023|  5.8070e+00|  4.4103e-09|  7.6965e-01|  5.0000e-01|  5.0000e-01|  5.0000e-01|   -6.319102|   -6.452793|   -6.973108|   -6.687271|   -6.620263|   -8.999431|    2.051317|
|       11024|  5.8070e+00|  4.4103e-09|  7.6965e-01|  5.0000e-01|  5.0000e-01|  5.0000e-01|   -6.318401|   -6.451942|   -6.972664|   -6.686635|   -6.619571|   -8.999054|    2.051305|
|       11025|  5.8070e+00|  4.4102e-09|  7.6965e-01|  5.0000e-01|  5.0000e-01|  5.0000e-01|   -6.317702|   -6.451094|   -6.972222|   -6.686001|   -6.618881|   -8.998678|    2.051292|
|       11026|  5.8070e+00|  4.4102e-09|  7.6965e-01|  5.0000e-01|  5.0000e-01|  5.0000e-01|   -6.317004|   -6.450248|   -6.971781|   -6.685368|   -6.618191|   -8.998303|    2.051280|
|       11027|  5.8070e+00|  4.4101e-09|  7.6965e-01|  5.0000e-01|  5.0000e-01|  5.0000e-01|   -6.316309|   -6.449404|   -6.971340|   -6.684736|   -6.617503|   -8.997929|    2.051268|
|       11028|  5.8070e+00|  4.4101e-09|  7.6965e-01|  5.0000e-01|  5.0000e-01|  5.0000e-01|   -6.315615|   -6.448563|   -6.970900|   -6.684106|   -6.616815|   -8.997556|    2.051255|
|       11029|  5.8070e+00|  4.4101e-09|  7.6965e-01|  5.0000e-01|  5.0000e-01|  5.0000e-01|   -6.314924|   -6.447724|   -6.970462|   -6.683477|   -6.616129|   -8.997184|    2.051243|
|       11030|  5.8069e+00|  4.4100e-09|  7.6965e-01|  5.0000e-01|  5.0000e-01|  5.0000e-01|   -6.314234|   -6.446887|   -6.970024|   -6.682849|   -6.615444|   -8.996813|    2.051231|
|       11031|  5.8069e+00|  4.4100e-09|  7.6965e-01|  5.0000e-01|  5.0000e-01|  5.0000e-01|   -6.313547|   -6.446053|   -6.969587|   -6.682223|   -6.614760|   -8.996443|    2.051219|
|       11032|  5.8069e+00|  4.4099e-09|  7.6965e-01|  5.0000e-01|  5.0000e-01|  5.0000e-01|   -6.312861|   -6.445221|   -6.969152|   -6.681597|   -6.614078|   -8.996074|    2.051207|
|       11033|  5.8069e+00|  4.4099e-09|  7.6965e-01|  5.0000e-01|  5.0000e-01|  5.0000e-01|   -6.312177|   -6.444392|   -6.968717|   -6.680974|   -6.613396|   -8.995706|    2.051195|
|       11034|  5.8069e+00|  4.4098e-09|  7.6965e-01|  5.0000e-01|  5.0000e-01|  5.0000e-01|   -6.311496|   -6.443565|   -6.968283|   -6.680352|   -6.612716|   -8.995339|    2.051183|
|       11035|  5.8068e+00|  4.4098e-09|  7.6965e-01|  5.0000e-01|  5.0000e-01|  5.0000e-01|   -6.310816|   -6.442741|   -6.967851|   -6.679731|   -6.612037|   -8.994973|    2.051171|

scontrol show job 1094559
JobId=1094559 JobName=m6_aoa24
   UserId=anthonyy(3152141) GroupId=anthonyy(3152141) MCS_label=N/A
   Priority=687424 Nice=0 Account=rrg-jphickey QOS=normal
   JobState=COMPLETING Reason=TimeLimit Dependency=(null)
   Requeue=0 Restarts=0 BatchFlag=1 Reboot=0 ExitCode=0:15
   RunTime=18:00:07 TimeLimit=18:00:00 TimeMin=N/A
   SubmitTime=2026-03-02T22:41:02 EligibleTime=2026-03-02T22:41:02
   AccrueTime=2026-03-02T22:41:02
   StartTime=2026-03-02T22:41:35 EndTime=2026-03-03T16:41:42 Deadline=N/A
   SuspendTime=None SecsPreSuspend=0 LastSchedEval=2026-03-02T22:41:35 Scheduler=Main
   Partition=compute AllocNode:Sid=tri-login04:2278487
   ReqNodeList=(null) ExcNodeList=(null)
   NodeList=tri[0948,0956]
   BatchHost=tri0948
   NumNodes=2 NumCPUs=384 NumTasks=128 CPUs/Task=1 ReqB:S:C:T=0:0:*:*
   ReqTRES=cpu=128,mem=1534000M,node=2,billing=128
   AllocTRES=cpu=384,mem=1534000M,node=2,billing=384
   Socks/Node=* NtasksPerN:B:S:C=64:0:*:* CoreSpec=*
   MinCPUsNode=64 MinMemoryNode=0 MinTmpDiskNode=0
   Features=(null) DelayBoot=00:00:00
   OverSubscribe=NO Contiguous=0 Licenses=(null) Network=(null)
   Command=/scratch/anthonyy/reentry/orion/cases/m6_aoa24/run.sh
   WorkDir=/scratch/anthonyy/reentry/orion/cases/m6_aoa24
   Comment=/opt/slurm/bin/sbatch --export=NONE --get-user-env=L run.sh 
   StdErr=/scratch/anthonyy/reentry/orion/cases/m6_aoa24/orion_1094559.err
   StdIn=/dev/null
   StdOut=/scratch/anthonyy/reentry/orion/cases/m6_aoa24/orion_1094559.out
   TresPerTask=cpu=1
   

sacct -j 1094559
JobID           JobName    Account    Elapsed  MaxVMSize     MaxRSS  SystemCPU    UserCPU ExitCode 
------------ ---------- ---------- ---------- ---------- ---------- ---------- ---------- -------- 
1094559        m6_aoa24 rrg-jphic+   18:00:07                        00:00.105  00:00.381      0:0 
1094559.bat+      batch rrg-jphic+   18:00:08          0     15044K  00:00.105  00:00.381     0:15 
1094559.ext+     extern rrg-jphic+   18:00:07                         00:00:00   00:00:00      0:0 
1094559.0       SU2_CFD rrg-jphic+   18:00:02                         00:00:00   00:00:00      0:0 

