Nodes: tri[0328-0329]
Tasks: 128
NPN:   64

-------------------------------------------------------------------------
|    ___ _   _ ___                                                      |
|   / __| | | |_  )   Release 7.5.1 "Blackbird"                         |
|   \__ \ |_| |/ /                                                      |
|   |___/\___//___|   Suite (Computational Fluid Dynamics Code)         |
|                                                                       |
-------------------------------------------------------------------------
| SU2 Project Website: https://su2code.github.io                        |
|                                                                       |
| The SU2 Project is maintained by the SU2 Foundation                   |
| (http://su2foundation.org)                                            |
-------------------------------------------------------------------------
| Copyright 2012-2023, SU2 Contributors                                 |
|                                                                       |
| SU2 is free software; you can redistribute it and/or                  |
| modify it under the terms of the GNU Lesser General Public            |
| License as published by the Free Software Foundation; either          |
| version 2.1 of the License, or (at your option) any later version.    |
|                                                                       |
| SU2 is distributed in the hope that it will be useful,                |
| but WITHOUT ANY WARRANTY; without even the implied warranty of        |
| MERCHANTABILITY or FITNESS FOR A PARTICULAR PURPOSE. See the GNU      |
| Lesser General Public License for more details.                       |
|                                                                       |
| You should have received a copy of the GNU Lesser General Public      |
| License along with SU2. If not, see <http://www.gnu.org/licenses/>.   |
-------------------------------------------------------------------------

Parsing config file for zone 0

----------------- Physical Case Definition ( Zone 0 ) -------------------
Compressible RANS equations.
Turbulence model: Spalart-Allmaras-noft2
Hybrid RANS/LES: No Hybrid RANS/LES
Mach number: 6.
Angle of attack (AoA): 32 deg, and angle of sideslip (AoS): 0 deg.
Reynolds number: 6.86229e+08. Reference length 5.
Reading and writing binary SU2 native restart files.
Read flow solution from: restart_flow.dat.
Non-Dimensional simulation (V=1.0, Rho=1.0, T=1.0 at the farfield).
The reference area will be computed using y(2D) or z(3D) projection.
The semi-span will be computed using the max y(3D) value.
The reference length is 0.64607 m.
Reference origin for moment evaluation is (0.25, 0, 0).
Surface(s) where the force coefficients are evaluated: ORION_SURFACE.

Input mesh file name: fine.su2

--------------- Space Numerical Integration ( Zone 0 ) ------------------
Jameson-Schmidt-Turkel scheme (2nd order in space) for the flow inviscid terms.
JST viscous coefficients (2nd & 4th): 0.5, 0.02.
The method includes a grid stretching correction (p = 0.3).
Scalar upwind solver for the turbulence model.
First order integration in space.
Average of gradients with correction (viscous flow terms).
Average of gradients with correction (viscous turbulence terms).
Gradient for upwind reconstruction: Green-Gauss.
Gradient for viscous and source terms: Green-Gauss.

--------------- Time Numerical Integration  ( Zone 0 ) ------------------
Local time stepping (steady state simulation).
Euler implicit method for the flow equations.
FGMRES is used for solving the linear system.
Using a ILU(0) preconditioning.
Convergence criteria of the linear solver: 1e-06.
Max number of linear iterations: 100.
CFL adaptation. Factor down: 0.5, factor up: 1.1,
                lower limit: 0.05, upper limit: 0.5,
                acceptable linear residual: 0.001.
Courant-Friedrichs-Lewy number:     0.03
Euler implicit time integration for the turbulence model.

------------------ Convergence Criteria  ( Zone 0 ) ---------------------
Maximum number of solver subiterations: 999999.
Begin convergence monitoring at iteration 5.
Residual minimum value: 1e-8.
Cauchy series min. value: 1e-10.
Number of Cauchy elements: 100.
Begin windowed time average at iteration 0.

-------------------- Output Information ( Zone 0 ) ----------------------
File writing frequency: 
+------------------------------------+
|                     File| Frequency|
+------------------------------------+
|                  RESTART|       150|
|                 PARAVIEW|       150|
|         SURFACE_PARAVIEW|       150|
+------------------------------------+
Writing the convergence history file every 1 inner iterations.
Writing the screen convergence history every 1 inner iterations.
The tabular file format is CSV (.csv).
Convergence history file name: history.
Forces breakdown file name: forces_breakdown.dat.
Surface file name: surface_flow.
Volume file name: flow.
Restart file name: restart_flow.

------------- Config File Boundary Information ( Zone 0 ) ---------------
+-----------------------------------------------------------------------+
|                        Marker Type|                        Marker Name|
+-----------------------------------------------------------------------+
|                          Far-field|                           FARFIELD|
+-----------------------------------------------------------------------+
|                     Heat flux wall|                      ORION_SURFACE|
+-----------------------------------------------------------------------+

-------------------- Output Preprocessing ( Zone 0 ) --------------------

WARNING: SURFACE_PRESSURE_DROP can only be computed for at least 2 surfaces (outlet, inlet, ...)

Screen output fields: INNER_ITER, WALL_TIME, MIN_DELTA_TIME, MAX_DELTA_TIME, MIN_CFL, MAX_CFL, AVG_CFL, RMS_DENSITY, RMS_MOMENTUM-X, RMS_MOMENTUM-Y, RMS_MOMENTUM-Z, RMS_ENERGY, RMS_NU_TILDE, DRAG
History output group(s): ITER, RMS_RES
Convergence field(s): RMS_DENSITY
Warning: No (valid) fields chosen for time convergence monitoring. Time convergence monitoring inactive.
Volume output fields: MACH, PRESSURE, TEMPERATURE, DENSITY, HEAT_FLUX, Y_PLUS, COORDINATES, SOLUTION

------------------- Geometry Preprocessing ( Zone 0 ) -------------------
Three dimensional problem.
62211324 grid points before partitioning.
190879888 volume elements before partitioning.
2 surface markers.
4104 boundary elements in index 0 (Marker = FARFIELD).
1824836 boundary elements in index 1 (Marker = ORION_SURFACE).
Executing the partitioning functions.
Building the graph adjacency structure.
Calling ParMETIS... graph partitioning complete (4959327 edge cuts).
Distributing ParMETIS coloring.
Rebalancing vertices.
Rebalancing volume element connectivity.
Rebalancing markers and surface elements.
66952290 vertices including ghost points. 
197997438 interior elements including halo cells. 
103171259 tetrahedra.
94500655 prisms.
325524 pyramids.
Establishing MPI communication patterns.
Setting point connectivity.
Renumbering points (Reverse Cuthill McKee Ordering).
Recomputing point connectivity.
Setting element connectivity.
Checking the numerical grid orientation.
All volume elements are correctly orientend.
All surface elements are correctly orientend.
Identifying edges and vertices.
Setting the control volume structure.
Volume of the computational grid: 535693.
Searching for the closest normal neighbors to the surfaces.
Storing a mapping from global to local point index.
Compute the surface curvature.
Max K: 132.896. Mean K: 3.9104. Standard deviation K: 7.49569.
Checking for periodicity.
Computing mesh quality statistics for the dual control volumes.
+--------------------------------------------------------------+
|           Mesh Quality Metric|        Minimum|        Maximum|
+--------------------------------------------------------------+
|    Orthogonality Angle (deg.)|        53.0661|             90|
|     CV Face Area Aspect Ratio|        1.01143|        75298.5|
|           CV Sub-Volume Ratio|        1.00029|        45.0258|
+--------------------------------------------------------------+
Finding max control volume width.
Communicating number of neighbors.
Reference area = 11.531 m^2.
Semi-span length = 2.49999 m.
Wetted area = 57.9072 m^2.
Area projection in the x-plane = 19.6343 m^2, y-plane = 11.531 m^2, z-plane = 11.531 m^2.
Max. coordinate in the x-direction = 2.575 m, y-direction = 2.49999 m, z-direction = 2.49999 m.
Min. coordinate in the x-direction = -0.71 m, y-direction = -2.49999 m, z-direction = -2.5 m.
Computing wall distances.

-------------------- Solver Preprocessing ( Zone 0 ) --------------------
Viscous flow: Computing pressure using the ideal gas law
based on the free-stream temperature and a density computed
from the Reynolds number.
Force coefficients computed using free-stream values.

-- Models:
+------------------------------------------------------------------------------+
|          Viscosity Model|        Conductivity Model|              Fluid Model|
+------------------------------------------------------------------------------+
|               SUTHERLAND|          CONSTANT_PRANDTL|             STANDARD_AIR|
+------------------------------------------------------------------------------+
-- Fluid properties:
+------------------------------------------------------------------------------+
|                  Name|    Dim. value|    Ref. value|      Unit|Non-dim. value|
+------------------------------------------------------------------------------+
|        Ref. Viscosity|     1.716e-05|       2455.73|   N.s/m^2|   6.98773e-09|
|      Sutherland Temp.|        273.15|        288.15|         K|      0.947944|
|     Sutherland Const.|         110.4|        288.15|         K|      0.383134|
+------------------------------------------------------------------------------+
|        Prandtl (Lam.)|             -|             -|         -|          0.72|
|       Prandtl (Turb.)|             -|             -|         -|           0.9|
+------------------------------------------------------------------------------+
|          Gas Constant|       287.058|       14467.7|  N.m/kg.K|     0.0198413|
|      Spec. Heat Ratio|             -|             -|         -|           1.4|
+------------------------------------------------------------------------------+
-- Initial and free-stream conditions:
+------------------------------------------------------------------------------+
|                  Name|    Dim. value|    Ref. value|      Unit|Non-dim. value|
+------------------------------------------------------------------------------+
|       Static Pressure|       99485.6|   5.01407e+06|        Pa|     0.0198413|
|               Density|       1.20274|       1.20274|    kg/m^3|             1|
|           Temperature|        288.15|        288.15|         K|             1|
|          Total Energy|   2.29123e+06|   4.16887e+06|   m^2/s^2|      0.549603|
|            Velocity-X|       1731.53|       2041.78|       m/s|      0.848048|
|            Velocity-Y|             0|       2041.78|       m/s|             0|
|            Velocity-Z|       1081.98|       2041.78|       m/s|      0.529919|
|    Velocity Magnitude|       2041.78|       2041.78|       m/s|             1|
+------------------------------------------------------------------------------+
|             Viscosity|    1.7893e-05|       2455.73|   N.s/m^2|    7.2862e-09|
|          Conductivity|             -|   3.55289e+07|   W/m^2.K|             -|
|     Turb. Kin. Energy|       15633.3|   4.16887e+06|   m^2/s^2|       0.00375|
|     Spec. Dissipation|   1.05085e+08|       2041.78|       1/s|       51467.1|
+------------------------------------------------------------------------------+
|           Mach Number|             -|             -|         -|             6|
|       Reynolds Number|             -|             -|         -|   6.86229e+08|
+------------------------------------------------------------------------------+
Initialize Jacobian structure (Navier-Stokes). MG level: 0.
Initialize Jacobian structure (SA model).

------------------- Numerics Preprocessing ( Zone 0 ) -------------------

----------------- Integration Preprocessing ( Zone 0 ) ------------------

------------------- Iteration Preprocessing ( Zone 0 ) ------------------
Euler/Navier-Stokes/RANS fluid iteration.

------------------------------ Begin Solver -----------------------------

Simulation Run using the Single-zone Driver
WARNING: SU2 was not compiled for an AVX-capable architecture. Performance could be better,
         see https://su2code.github.io/docs_v7/Build-SU2-Linux-MacOS/#compiler-optimizations
+-------------------------------------------------------------------------------------------------------------------------------------------------------------------------------------+
|  Inner_Iter|   Time(sec)|      Min DT|      Max DT|     Min CFL|     Max CFL|     Avg CFL|    rms[Rho]|   rms[RhoU]|   rms[RhoV]|   rms[RhoW]|   rms[RhoE]|     rms[nu]|          CD|
+-------------------------------------------------------------------------------------------------------------------------------------------------------------------------------------+
|           0|  7.3085e+00|  2.3301e-10|  4.5662e-02|  5.0000e-02|  5.0000e-02|  5.0000e-02|   -6.829656|   -6.956483|   -7.447961|   -7.117251|   -7.102711|   -9.014183|    1.758511|
|           1|  6.2329e+00|  3.8834e-10|  7.6103e-02|  5.5000e-02|  5.5000e-02|  5.5000e-02|   -6.829705|   -6.956520|   -7.448015|   -7.117306|   -7.102776|   -9.014154|    1.758512|
|           2|  5.8632e+00|  4.2718e-10|  8.3713e-02|  6.0500e-02|  6.0500e-02|  6.0500e-02|   -6.829782|   -6.956578|   -7.448099|   -7.117393|   -7.102880|   -9.014115|    1.758512|
|           3|  5.6835e+00|  4.6989e-10|  9.2084e-02|  6.6550e-02|  6.6550e-02|  6.6550e-02|   -6.829866|   -6.956643|   -7.448189|   -7.117488|   -7.102992|   -9.014072|    1.758512|
|           4|  5.5538e+00|  5.1688e-10|  1.0129e-01|  7.3205e-02|  7.3205e-02|  7.3205e-02|   -6.829958|   -6.956713|   -7.448285|   -7.117592|   -7.103115|   -9.014024|    1.758513|
|           5|  5.4569e+00|  5.6857e-10|  1.1142e-01|  8.0526e-02|  8.0526e-02|  8.0526e-02|   -6.830057|   -6.956789|   -7.448387|   -7.117705|   -7.103247|   -9.013972|    1.758513|
|           6|  5.3920e+00|  6.2542e-10|  1.2256e-01|  8.8578e-02|  8.8578e-02|  8.8578e-02|   -6.830165|   -6.956873|   -7.448496|   -7.117828|   -7.103390|   -9.013915|    1.758514|
|           7|  5.3663e+00|  6.8796e-10|  1.3482e-01|  9.7436e-02|  9.7436e-02|  9.7436e-02|   -6.830281|   -6.956964|   -7.448612|   -7.117961|   -7.103544|   -9.013852|    1.758514|
|           8|  5.3625e+00|  7.5676e-10|  1.4830e-01|  1.0718e-01|  1.0718e-01|  1.0718e-01|   -6.830408|   -6.957063|   -7.448734|   -7.118105|   -7.103710|   -9.013783|    1.758515|
|           9|  5.3741e+00|  8.3243e-10|  1.6313e-01|  1.1790e-01|  1.1790e-01|  1.1790e-01|   -6.830544|   -6.957171|   -7.448861|   -7.118262|   -7.103889|   -9.013707|    1.758515|
|          10|  5.3953e+00|  9.1568e-10|  1.7945e-01|  1.2969e-01|  1.2969e-01|  1.2969e-01|   -6.830691|   -6.957288|   -7.448995|   -7.118431|   -7.104080|   -9.013623|    1.758516|
|          11|  5.4258e+00|  1.0072e-09|  1.9739e-01|  1.4266e-01|  1.4266e-01|  1.4266e-01|   -6.830849|   -6.957415|   -7.449133|   -7.118614|   -7.104285|   -9.013531|    1.758517|
|          12|  5.4782e+00|  1.1080e-09|  2.1713e-01|  1.5692e-01|  1.5692e-01|  1.5692e-01|   -6.831018|   -6.957552|   -7.449274|   -7.118811|   -7.104503|   -9.013431|    1.758518|
|          13|  5.5446e+00|  1.2188e-09|  2.3884e-01|  1.7261e-01|  1.7261e-01|  1.7261e-01|   -6.831200|   -6.957700|   -7.449419|   -7.119022|   -7.104734|   -9.013320|    1.758519|
|          14|  5.5936e+00|  1.3406e-09|  2.6273e-01|  1.8987e-01|  1.8987e-01|  1.8987e-01|   -6.831394|   -6.957860|   -7.449564|   -7.119249|   -7.104979|   -9.013199|    1.758520|
|          15|  5.6386e+00|  1.4747e-09|  2.8900e-01|  2.0886e-01|  2.0886e-01|  2.0886e-01|   -6.831599|   -6.958031|   -7.449709|   -7.119491|   -7.105237|   -9.013066|    1.758521|
|          16|  5.6786e+00|  1.6221e-09|  3.1790e-01|  2.2975e-01|  2.2975e-01|  2.2975e-01|   -6.831817|   -6.958214|   -7.449849|   -7.119750|   -7.105507|   -9.012919|    1.758522|
|          17|  5.7070e+00|  1.7843e-09|  3.4969e-01|  2.5272e-01|  2.5272e-01|  2.5272e-01|   -6.832047|   -6.958410|   -7.449984|   -7.120024|   -7.105787|   -9.012759|    1.758523|
|          18|  5.7296e+00|  1.9628e-09|  3.8466e-01|  2.7800e-01|  2.7800e-01|  2.7800e-01|   -6.832288|   -6.958616|   -7.450108|   -7.120314|   -7.106077|   -9.012584|    1.758525|
|          19|  5.7454e+00|  2.1590e-09|  4.2313e-01|  3.0580e-01|  3.0580e-01|  3.0580e-01|   -6.832539|   -6.958834|   -7.450217|   -7.120618|   -7.106372|   -9.012391|    1.758526|
|          20|  5.7553e+00|  2.3749e-09|  4.6544e-01|  3.3637e-01|  3.3637e-01|  3.3637e-01|   -6.832798|   -6.959062|   -7.450307|   -7.120937|   -7.106671|   -9.012180|    1.758528|
|          21|  5.7815e+00|  2.6124e-09|  5.1198e-01|  3.7001e-01|  3.7001e-01|  3.7001e-01|   -6.833062|   -6.959297|   -7.450371|   -7.121266|   -7.106967|   -9.011949|    1.758530|
|          22|  5.8074e+00|  2.8736e-09|  5.6318e-01|  4.0701e-01|  4.0701e-01|  4.0701e-01|   -6.833329|   -6.959537|   -7.450401|   -7.121604|   -7.107254|   -9.011696|    1.758532|
|          23|  5.8274e+00|  3.1610e-09|  6.1950e-01|  4.4772e-01|  4.4772e-01|  4.4772e-01|   -6.833593|   -6.959778|   -7.450391|   -7.121947|   -7.107525|   -9.011420|    1.758534|
|          24|  5.8424e+00|  3.4770e-09|  6.8145e-01|  4.9249e-01|  4.9249e-01|  4.9249e-01|   -6.833848|   -6.960014|   -7.450331|   -7.122288|   -7.107770|   -9.011118|    1.758537|
|          25|  5.8590e+00|  3.8247e-09|  7.4959e-01|  5.0000e-01|  5.0000e-01|  5.0000e-01|   -6.834087|   -6.960239|   -7.450209|   -7.122621|   -7.107974|   -9.010789|    1.758540|
|          26|  5.8783e+00|  3.8830e-09|  7.6103e-01|  5.0000e-01|  5.0000e-01|  5.0000e-01|   -6.834299|   -6.960441|   -7.450014|   -7.122935|   -7.108121|   -9.010443|    1.758543|
|          27|  5.8939e+00|  3.8829e-09|  7.6103e-01|  5.0000e-01|  5.0000e-01|  5.0000e-01|   -6.834497|   -6.960629|   -7.449815|   -7.123238|   -7.108249|   -9.010096|    1.758545|
|          28|  5.9122e+00|  3.8829e-09|  7.6103e-01|  5.0000e-01|  5.0000e-01|  5.0000e-01|   -6.834687|   -6.960805|   -7.449625|   -7.123530|   -7.108365|   -9.009752|    1.758548|
|          29|  5.9254e+00|  3.8829e-09|  7.6103e-01|  5.0000e-01|  5.0000e-01|  5.0000e-01|   -6.834868|   -6.960969|   -7.449443|   -7.123813|   -7.108470|   -9.009412|    1.758551|
|          30|  5.9352e+00|  3.8828e-09|  7.6103e-01|  5.0000e-01|  5.0000e-01|  5.0000e-01|   -6.835041|   -6.961121|   -7.449270|   -7.124087|   -7.108565|   -9.009074|    1.758554|
|          31|  5.9497e+00|  3.8828e-09|  7.6103e-01|  5.0000e-01|  5.0000e-01|  5.0000e-01|   -6.835205|   -6.961263|   -7.449105|   -7.124351|   -7.108649|   -9.008738|    1.758557|
|          32|  5.9616e+00|  3.8827e-09|  7.6103e-01|  5.0000e-01|  5.0000e-01|  5.0000e-01|   -6.835360|   -6.961394|   -7.448946|   -7.124606|   -7.108724|   -9.008406|    1.758560|
|          33|  5.9740e+00|  3.8827e-09|  7.6103e-01|  5.0000e-01|  5.0000e-01|  5.0000e-01|   -6.835508|   -6.961516|   -7.448793|   -7.124853|   -7.108790|   -9.008076|    1.758562|
|          34|  5.9885e+00|  3.8826e-09|  7.6103e-01|  5.0000e-01|  5.0000e-01|  5.0000e-01|   -6.835648|   -6.961628|   -7.448645|   -7.125092|   -7.108848|   -9.007750|    1.758565|
|          35|  6.0022e+00|  3.8826e-09|  7.6103e-01|  5.0000e-01|  5.0000e-01|  5.0000e-01|   -6.835781|   -6.961732|   -7.448503|   -7.125323|   -7.108898|   -9.007426|    1.758568|
|          36|  6.0163e+00|  3.8826e-09|  7.6103e-01|  5.0000e-01|  5.0000e-01|  5.0000e-01|   -6.835907|   -6.961828|   -7.448366|   -7.125546|   -7.108941|   -9.007104|    1.758571|
|          37|  6.0269e+00|  3.8825e-09|  7.6103e-01|  5.0000e-01|  5.0000e-01|  5.0000e-01|   -6.836027|   -6.961917|   -7.448232|   -7.125763|   -7.108977|   -9.006786|    1.758574|
|          38|  6.0349e+00|  3.8825e-09|  7.6103e-01|  5.0000e-01|  5.0000e-01|  5.0000e-01|   -6.836141|   -6.961999|   -7.448102|   -7.125974|   -7.109008|   -9.006470|    1.758576|
|          39|  6.0402e+00|  3.8824e-09|  7.6103e-01|  5.0000e-01|  5.0000e-01|  5.0000e-01|   -6.836250|   -6.962075|   -7.447976|   -7.126179|   -7.109035|   -9.006158|    1.758579|
|          40|  6.0452e+00|  3.8824e-09|  7.6103e-01|  5.0000e-01|  5.0000e-01|  5.0000e-01|   -6.836354|   -6.962147|   -7.447852|   -7.126380|   -7.109057|   -9.005847|    1.758582|
|          41|  6.0548e+00|  3.8823e-09|  7.6103e-01|  5.0000e-01|  5.0000e-01|  5.0000e-01|   -6.836454|   -6.962213|   -7.447730|   -7.126575|   -7.109076|   -9.005540|    1.758585|
|          42|  6.0597e+00|  3.8823e-09|  7.6103e-01|  5.0000e-01|  5.0000e-01|  5.0000e-01|   -6.836551|   -6.962276|   -7.447611|   -7.126766|   -7.109092|   -9.005235|    1.758587|
|          43|  6.0616e+00|  3.8823e-09|  7.6103e-01|  5.0000e-01|  5.0000e-01|  5.0000e-01|   -6.836643|   -6.962335|   -7.447493|   -7.126954|   -7.109106|   -9.004933|    1.758590|
|          44|  6.0632e+00|  3.8822e-09|  7.6103e-01|  5.0000e-01|  5.0000e-01|  5.0000e-01|   -6.836733|   -6.962392|   -7.447377|   -7.127138|   -7.109118|   -9.004634|    1.758593|
|          45|  6.0688e+00|  3.8822e-09|  7.6103e-01|  5.0000e-01|  5.0000e-01|  5.0000e-01|   -6.836820|   -6.962446|   -7.447262|   -7.127319|   -7.109130|   -9.004338|    1.758596|
|          46|  6.0735e+00|  3.8821e-09|  7.6103e-01|  5.0000e-01|  5.0000e-01|  5.0000e-01|   -6.836905|   -6.962498|   -7.447147|   -7.127498|   -7.109140|   -9.004044|    1.758598|
|          47|  6.0795e+00|  3.8821e-09|  7.6103e-01|  5.0000e-01|  5.0000e-01|  5.0000e-01|   -6.836988|   -6.962549|   -7.447033|   -7.127674|   -7.109151|   -9.003753|    1.758601|
|          48|  6.0835e+00|  3.8820e-09|  7.6103e-01|  5.0000e-01|  5.0000e-01|  5.0000e-01|   -6.837070|   -6.962599|   -7.446920|   -7.127849|   -7.109162|   -9.003465|    1.758604|
|          49|  6.0873e+00|  3.8820e-09|  7.6103e-01|  5.0000e-01|  5.0000e-01|  5.0000e-01|   -6.837151|   -6.962648|   -7.446806|   -7.128022|   -7.109174|   -9.003179|    1.758606|
|          50|  6.0893e+00|  3.8820e-09|  7.6103e-01|  5.0000e-01|  5.0000e-01|  5.0000e-01|   -6.837230|   -6.962697|   -7.446692|   -7.128193|   -7.109186|   -9.002896|    1.758609|
|          51|  6.0933e+00|  3.8819e-09|  7.6103e-01|  5.0000e-01|  5.0000e-01|  5.0000e-01|   -6.837309|   -6.962746|   -7.446578|   -7.128364|   -7.109200|   -9.002616|    1.758612|
|          52|  6.0967e+00|  3.8819e-09|  7.6103e-01|  5.0000e-01|  5.0000e-01|  5.0000e-01|   -6.837388|   -6.962794|   -7.446464|   -7.128533|   -7.109215|   -9.002338|    1.758615|
|          53|  6.1052e+00|  3.8818e-09|  7.6103e-01|  5.0000e-01|  5.0000e-01|  5.0000e-01|   -6.837466|   -6.962843|   -7.446348|   -7.128701|   -7.109232|   -9.002063|    1.758617|
|          54|  6.1144e+00|  3.8818e-09|  7.6103e-01|  5.0000e-01|  5.0000e-01|  5.0000e-01|   -6.837544|   -6.962893|   -7.446232|   -7.128869|   -7.109251|   -9.001791|    1.758620|
|          55|  6.1226e+00|  3.8817e-09|  7.6103e-01|  5.0000e-01|  5.0000e-01|  5.0000e-01|   -6.837621|   -6.962943|   -7.446115|   -7.129035|   -7.109272|   -9.001521|    1.758622|
|          56|  6.1284e+00|  3.8817e-09|  7.6103e-01|  5.0000e-01|  5.0000e-01|  5.0000e-01|   -6.837699|   -6.962993|   -7.445996|   -7.129201|   -7.109294|   -9.001254|    1.758625|
|          57|  6.1321e+00|  3.8817e-09|  7.6103e-01|  5.0000e-01|  5.0000e-01|  5.0000e-01|   -6.837777|   -6.963044|   -7.445877|   -7.129366|   -7.109318|   -9.000990|    1.758628|
|          58|  6.1342e+00|  3.8816e-09|  7.6103e-01|  5.0000e-01|  5.0000e-01|  5.0000e-01|   -6.837855|   -6.963096|   -7.445756|   -7.129531|   -7.109345|   -9.000729|    1.758630|
|          59|  6.1414e+00|  3.8816e-09|  7.6103e-01|  5.0000e-01|  5.0000e-01|  5.0000e-01|   -6.837932|   -6.963148|   -7.445633|   -7.129694|   -7.109373|   -9.000470|    1.758633|
|          60|  6.1470e+00|  3.8815e-09|  7.6103e-01|  5.0000e-01|  5.0000e-01|  5.0000e-01|   -6.838010|   -6.963201|   -7.445509|   -7.129857|   -7.109403|   -9.000214|    1.758636|
|          61|  6.1519e+00|  3.8815e-09|  7.6103e-01|  5.0000e-01|  5.0000e-01|  5.0000e-01|   -6.838088|   -6.963255|   -7.445383|   -7.130018|   -7.109435|   -8.999960|    1.758638|
|          62|  6.1554e+00|  3.8814e-09|  7.6103e-01|  5.0000e-01|  5.0000e-01|  5.0000e-01|   -6.838166|   -6.963309|   -7.445255|   -7.130179|   -7.109468|   -8.999709|    1.758641|
|          63|  6.1587e+00|  3.8814e-09|  7.6103e-01|  5.0000e-01|  5.0000e-01|  5.0000e-01|   -6.838244|   -6.963363|   -7.445125|   -7.130338|   -7.109503|   -8.999461|    1.758643|
|          64|  6.1597e+00|  3.8814e-09|  7.6103e-01|  5.0000e-01|  5.0000e-01|  5.0000e-01|   -6.838322|   -6.963418|   -7.444994|   -7.130496|   -7.109539|   -8.999216|    1.758646|
|          65|  6.1617e+00|  3.8813e-09|  7.6103e-01|  5.0000e-01|  5.0000e-01|  5.0000e-01|   -6.838399|   -6.963473|   -7.444861|   -7.130653|   -7.109576|   -8.998973|    1.758649|
|          66|  6.1624e+00|  3.8813e-09|  7.6103e-01|  5.0000e-01|  5.0000e-01|  5.0000e-01|   -6.838476|   -6.963528|   -7.444725|   -7.130808|   -7.109615|   -8.998733|    1.758651|
|          67|  6.1630e+00|  3.8812e-09|  7.6103e-01|  5.0000e-01|  5.0000e-01|  5.0000e-01|   -6.838553|   -6.963583|   -7.444588|   -7.130961|   -7.109654|   -8.998496|    1.758654|
|          68|  6.1648e+00|  3.8812e-09|  7.6103e-01|  5.0000e-01|  5.0000e-01|  5.0000e-01|   -6.838629|   -6.963638|   -7.444449|   -7.131113|   -7.109694|   -8.998261|    1.758656|
|          69|  6.1667e+00|  3.8811e-09|  7.6103e-01|  5.0000e-01|  5.0000e-01|  5.0000e-01|   -6.838704|   -6.963692|   -7.444307|   -7.131263|   -7.109735|   -8.998029|    1.758659|
|          70|  6.1666e+00|  3.8811e-09|  7.6103e-01|  5.0000e-01|  5.0000e-01|  5.0000e-01|   -6.838779|   -6.963747|   -7.444164|   -7.131410|   -7.109776|   -8.997800|    1.758661|
|          71|  6.1700e+00|  3.8811e-09|  7.6103e-01|  5.0000e-01|  5.0000e-01|  5.0000e-01|   -6.838852|   -6.963800|   -7.444018|   -7.131556|   -7.109817|   -8.997574|    1.758664|
|          72|  6.1713e+00|  3.8810e-09|  7.6103e-01|  5.0000e-01|  5.0000e-01|  5.0000e-01|   -6.838925|   -6.963853|   -7.443871|   -7.131699|   -7.109858|   -8.997350|    1.758666|
|          73|  6.1715e+00|  3.8810e-09|  7.6103e-01|  5.0000e-01|  5.0000e-01|  5.0000e-01|   -6.838997|   -6.963905|   -7.443721|   -7.131839|   -7.109899|   -8.997129|    1.758669|
|          74|  6.1722e+00|  3.8809e-09|  7.6103e-01|  5.0000e-01|  5.0000e-01|  5.0000e-01|   -6.839067|   -6.963956|   -7.443570|   -7.131977|   -7.109940|   -8.996911|    1.758671|
|          75|  6.1748e+00|  3.8809e-09|  7.6103e-01|  5.0000e-01|  5.0000e-01|  5.0000e-01|   -6.839136|   -6.964006|   -7.443416|   -7.132112|   -7.109981|   -8.996695|    1.758674|
|          76|  6.1753e+00|  3.8808e-09|  7.6103e-01|  5.0000e-01|  5.0000e-01|  5.0000e-01|   -6.839203|   -6.964055|   -7.443260|   -7.132244|   -7.110021|   -8.996483|    1.758676|
|          77|  6.1780e+00|  3.8808e-09|  7.6103e-01|  5.0000e-01|  5.0000e-01|  5.0000e-01|   -6.839269|   -6.964102|   -7.443102|   -7.132373|   -7.110060|   -8.996273|    1.758679|
|          78|  6.1785e+00|  3.8808e-09|  7.6103e-01|  5.0000e-01|  5.0000e-01|  5.0000e-01|   -6.839333|   -6.964148|   -7.442942|   -7.132498|   -7.110098|   -8.996065|    1.758681|
|          79|  6.1805e+00|  3.8807e-09|  7.6103e-01|  5.0000e-01|  5.0000e-01|  5.0000e-01|   -6.839395|   -6.964193|   -7.442781|   -7.132621|   -7.110135|   -8.995861|    1.758684|
|          80|  6.1818e+00|  3.8807e-09|  7.6103e-01|  5.0000e-01|  5.0000e-01|  5.0000e-01|   -6.839455|   -6.964236|   -7.442617|   -7.132739|   -7.110171|   -8.995659|    1.758686|
|          81|  6.1841e+00|  3.8806e-09|  7.6103e-01|  5.0000e-01|  5.0000e-01|  5.0000e-01|   -6.839513|   -6.964277|   -7.442451|   -7.132855|   -7.110206|   -8.995460|    1.758688|
|          82|  6.1852e+00|  3.8806e-09|  7.6103e-01|  5.0000e-01|  5.0000e-01|  5.0000e-01|   -6.839568|   -6.964316|   -7.442283|   -7.132966|   -7.110239|   -8.995264|    1.758691|
|          83|  6.1869e+00|  3.8805e-09|  7.6103e-01|  5.0000e-01|  5.0000e-01|  5.0000e-01|   -6.839621|   -6.964353|   -7.442112|   -7.133073|   -7.110271|   -8.995070|    1.758693|
|          84|  6.1874e+00|  3.8805e-09|  7.6103e-01|  5.0000e-01|  5.0000e-01|  5.0000e-01|   -6.839671|   -6.964388|   -7.441940|   -7.133177|   -7.110300|   -8.994879|    1.758696|
|          85|  6.1891e+00|  3.8805e-09|  7.6103e-01|  5.0000e-01|  5.0000e-01|  5.0000e-01|   -6.839719|   -6.964421|   -7.441766|   -7.133276|   -7.110328|   -8.994691|    1.758698|
|          86|  6.1898e+00|  3.8804e-09|  7.6103e-01|  5.0000e-01|  5.0000e-01|  5.0000e-01|   -6.839764|   -6.964451|   -7.441590|   -7.133371|   -7.110354|   -8.994506|    1.758700|
|          87|  6.1932e+00|  3.8804e-09|  7.6103e-01|  5.0000e-01|  5.0000e-01|  5.0000e-01|   -6.839805|   -6.964479|   -7.441412|   -7.133461|   -7.110378|   -8.994323|    1.758703|
|          88|  6.1943e+00|  3.8803e-09|  7.6103e-01|  5.0000e-01|  5.0000e-01|  5.0000e-01|   -6.839844|   -6.964504|   -7.441231|   -7.133547|   -7.110399|   -8.994143|    1.758705|
|          89|  6.1952e+00|  3.8803e-09|  7.6103e-01|  5.0000e-01|  5.0000e-01|  5.0000e-01|   -6.839879|   -6.964527|   -7.441049|   -7.133629|   -7.110418|   -8.993966|    1.758707|
|          90|  6.1963e+00|  3.8802e-09|  7.6103e-01|  5.0000e-01|  5.0000e-01|  5.0000e-01|   -6.839911|   -6.964547|   -7.440865|   -7.133705|   -7.110435|   -8.993792|    1.758710|
|          91|  6.1981e+00|  3.8802e-09|  7.6103e-01|  5.0000e-01|  5.0000e-01|  5.0000e-01|   -6.839940|   -6.964564|   -7.440679|   -7.133777|   -7.110448|   -8.993620|    1.758712|
|          92|  6.1985e+00|  3.8802e-09|  7.6103e-01|  5.0000e-01|  5.0000e-01|  5.0000e-01|   -6.839965|   -6.964579|   -7.440491|   -7.133843|   -7.110459|   -8.993451|    1.758714|
|          93|  6.2007e+00|  3.8801e-09|  7.6103e-01|  5.0000e-01|  5.0000e-01|  5.0000e-01|   -6.839986|   -6.964590|   -7.440301|   -7.133905|   -7.110468|   -8.993285|    1.758717|
|          94|  6.2016e+00|  3.8801e-09|  7.6103e-01|  5.0000e-01|  5.0000e-01|  5.0000e-01|   -6.840003|   -6.964598|   -7.440110|   -7.133961|   -7.110473|   -8.993122|    1.758719|
|          95|  6.2017e+00|  3.8800e-09|  7.6103e-01|  5.0000e-01|  5.0000e-01|  5.0000e-01|   -6.840017|   -6.964603|   -7.439916|   -7.134012|   -7.110475|   -8.992961|    1.758721|
|          96|  6.2009e+00|  3.8800e-09|  7.6103e-01|  5.0000e-01|  5.0000e-01|  5.0000e-01|   -6.840026|   -6.964604|   -7.439721|   -7.134057|   -7.110474|   -8.992803|    1.758724|
|          97|  6.2022e+00|  3.8799e-09|  7.6103e-01|  5.0000e-01|  5.0000e-01|  5.0000e-01|   -6.840031|   -6.964603|   -7.439523|   -7.134097|   -7.110470|   -8.992648|    1.758726|
|          98|  6.2041e+00|  3.8799e-09|  7.6103e-01|  5.0000e-01|  5.0000e-01|  5.0000e-01|   -6.840032|   -6.964598|   -7.439324|   -7.134131|   -7.110462|   -8.992495|    1.758728|
|          99|  6.2056e+00|  3.8799e-09|  7.6103e-01|  5.0000e-01|  5.0000e-01|  5.0000e-01|   -6.840029|   -6.964589|   -7.439123|   -7.134159|   -7.110451|   -8.992346|    1.758730|
|         100|  6.2077e+00|  3.8798e-09|  7.6103e-01|  5.0000e-01|  5.0000e-01|  5.0000e-01|   -6.840021|   -6.964576|   -7.438920|   -7.134181|   -7.110436|   -8.992199|    1.758733|
|         101|  6.2081e+00|  3.8798e-09|  7.6103e-01|  5.0000e-01|  5.0000e-01|  5.0000e-01|   -6.840009|   -6.964560|   -7.438716|   -7.134198|   -7.110417|   -8.992054|    1.758735|
|         102|  6.2081e+00|  3.8797e-09|  7.6103e-01|  5.0000e-01|  5.0000e-01|  5.0000e-01|   -6.839992|   -6.964541|   -7.438510|   -7.134208|   -7.110395|   -8.991913|    1.758737|
|         103|  6.2089e+00|  3.8797e-09|  7.6103e-01|  5.0000e-01|  5.0000e-01|  5.0000e-01|   -6.839970|   -6.964517|   -7.438302|   -7.134213|   -7.110370|   -8.991774|    1.758739|
|         104|  6.2107e+00|  3.8796e-09|  7.6103e-01|  5.0000e-01|  5.0000e-01|  5.0000e-01|   -6.839944|   -6.964490|   -7.438092|   -7.134211|   -7.110340|   -8.991637|    1.758741|
|         105|  6.2118e+00|  3.8796e-09|  7.6103e-01|  5.0000e-01|  5.0000e-01|  5.0000e-01|   -6.839914|   -6.964459|   -7.437881|   -7.134204|   -7.110307|   -8.991504|    1.758744|
|         106|  6.2119e+00|  3.8795e-09|  7.6103e-01|  5.0000e-01|  5.0000e-01|  5.0000e-01|   -6.839879|   -6.964424|   -7.437668|   -7.134190|   -7.110270|   -8.991373|    1.758746|
|         107|  6.2116e+00|  3.8795e-09|  7.6103e-01|  5.0000e-01|  5.0000e-01|  5.0000e-01|   -6.839839|   -6.964385|   -7.437454|   -7.134171|   -7.110229|   -8.991245|    1.758748|
|         108|  6.2118e+00|  3.8795e-09|  7.6103e-01|  5.0000e-01|  5.0000e-01|  5.0000e-01|   -6.839794|   -6.964342|   -7.437239|   -7.134145|   -7.110185|   -8.991120|    1.758750|
|         109|  6.2125e+00|  3.8794e-09|  7.6103e-01|  5.0000e-01|  5.0000e-01|  5.0000e-01|   -6.839745|   -6.964295|   -7.437021|   -7.134112|   -7.110136|   -8.990997|    1.758752|
|         110|  6.2134e+00|  3.8794e-09|  7.6103e-01|  5.0000e-01|  5.0000e-01|  5.0000e-01|   -6.839691|   -6.964244|   -7.436803|   -7.134074|   -7.110083|   -8.990877|    1.758754|
|         111|  6.2146e+00|  3.8793e-09|  7.6103e-01|  5.0000e-01|  5.0000e-01|  5.0000e-01|   -6.839632|   -6.964190|   -7.436582|   -7.134029|   -7.110027|   -8.990760|    1.758756|
|         112|  6.2142e+00|  3.8793e-09|  7.6103e-01|  5.0000e-01|  5.0000e-01|  5.0000e-01|   -6.839568|   -6.964131|   -7.436361|   -7.133978|   -7.109966|   -8.990645|    1.758759|
|         113|  6.2140e+00|  3.8792e-09|  7.6103e-01|  5.0000e-01|  5.0000e-01|  5.0000e-01|   -6.839499|   -6.964068|   -7.436138|   -7.133921|   -7.109902|   -8.990533|    1.758761|
|         114|  6.2136e+00|  3.8792e-09|  7.6103e-01|  5.0000e-01|  5.0000e-01|  5.0000e-01|   -6.839426|   -6.964001|   -7.435914|   -7.133857|   -7.109834|   -8.990424|    1.758763|
|         115|  6.2140e+00|  3.8792e-09|  7.6103e-01|  5.0000e-01|  5.0000e-01|  5.0000e-01|   -6.839348|   -6.963930|   -7.435688|   -7.133788|   -7.109762|   -8.990318|    1.758765|
|         116|  6.2138e+00|  3.8791e-09|  7.6103e-01|  5.0000e-01|  5.0000e-01|  5.0000e-01|   -6.839265|   -6.963855|   -7.435461|   -7.133712|   -7.109686|   -8.990214|    1.758767|
|         117|  6.2134e+00|  3.8791e-09|  7.6103e-01|  5.0000e-01|  5.0000e-01|  5.0000e-01|   -6.839178|   -6.963776|   -7.435233|   -7.133630|   -7.109606|   -8.990113|    1.758769|
|         118|  6.2123e+00|  3.8790e-09|  7.6103e-01|  5.0000e-01|  5.0000e-01|  5.0000e-01|   -6.839086|   -6.963692|   -7.435004|   -7.133542|   -7.109522|   -8.990014|    1.758771|
|         119|  6.2123e+00|  3.8790e-09|  7.6103e-01|  5.0000e-01|  5.0000e-01|  5.0000e-01|   -6.838989|   -6.963605|   -7.434774|   -7.133447|   -7.109434|   -8.989918|    1.758773|
|         120|  6.2122e+00|  3.8789e-09|  7.6103e-01|  5.0000e-01|  5.0000e-01|  5.0000e-01|   -6.838887|   -6.963514|   -7.434543|   -7.133347|   -7.109343|   -8.989825|    1.758775|
|         121|  6.2117e+00|  3.8789e-09|  7.6103e-01|  5.0000e-01|  5.0000e-01|  5.0000e-01|   -6.838781|   -6.963418|   -7.434310|   -7.133241|   -7.109248|   -8.989735|    1.758777|
|         122|  6.2108e+00|  3.8789e-09|  7.6103e-01|  5.0000e-01|  5.0000e-01|  5.0000e-01|   -6.838670|   -6.963319|   -7.434077|   -7.133128|   -7.109149|   -8.989647|    1.758779|
|         123|  6.2099e+00|  3.8788e-09|  7.6103e-01|  5.0000e-01|  5.0000e-01|  5.0000e-01|   -6.838555|   -6.963215|   -7.433842|   -7.133010|   -7.109046|   -8.989562|    1.758781|
|         124|  6.2091e+00|  3.8788e-09|  7.6103e-01|  5.0000e-01|  5.0000e-01|  5.0000e-01|   -6.838435|   -6.963108|   -7.433606|   -7.132885|   -7.108939|   -8.989479|    1.758783|
|         125|  6.2091e+00|  3.8787e-09|  7.6103e-01|  5.0000e-01|  5.0000e-01|  5.0000e-01|   -6.838310|   -6.962996|   -7.433370|   -7.132755|   -7.108829|   -8.989399|    1.758785|
|         126|  6.2087e+00|  3.8787e-09|  7.6103e-01|  5.0000e-01|  5.0000e-01|  5.0000e-01|   -6.838181|   -6.962880|   -7.433132|   -7.132618|   -7.108715|   -8.989322|    1.758787|
|         127|  6.2078e+00|  3.8786e-09|  7.6103e-01|  5.0000e-01|  5.0000e-01|  5.0000e-01|   -6.838047|   -6.962761|   -7.432893|   -7.132476|   -7.108597|   -8.989248|    1.758789|
|         128|  6.2071e+00|  3.8786e-09|  7.6103e-01|  5.0000e-01|  5.0000e-01|  5.0000e-01|   -6.837909|   -6.962637|   -7.432654|   -7.132327|   -7.108476|   -8.989176|    1.758791|
|         129|  6.2068e+00|  3.8786e-09|  7.6103e-01|  5.0000e-01|  5.0000e-01|  5.0000e-01|   -6.837767|   -6.962510|   -7.432414|   -7.132173|   -7.108351|   -8.989107|    1.758793|
|         130|  6.2079e+00|  3.8785e-09|  7.6103e-01|  5.0000e-01|  5.0000e-01|  5.0000e-01|   -6.837620|   -6.962378|   -7.432173|   -7.132013|   -7.108222|   -8.989040|    1.758794|
|         131|  6.2086e+00|  3.8785e-09|  7.6103e-01|  5.0000e-01|  5.0000e-01|  5.0000e-01|   -6.837468|   -6.962242|   -7.431931|   -7.131847|   -7.108090|   -8.988976|    1.758796|
|         132|  6.2082e+00|  3.8784e-09|  7.6103e-01|  5.0000e-01|  5.0000e-01|  5.0000e-01|   -6.837312|   -6.962103|   -7.431689|   -7.131675|   -7.107954|   -8.988915|    1.758798|
|         133|  6.2075e+00|  3.8784e-09|  7.6103e-01|  5.0000e-01|  5.0000e-01|  5.0000e-01|   -6.837152|   -6.961959|   -7.431446|   -7.131497|   -7.107815|   -8.988856|    1.758800|
|         134|  6.2068e+00|  3.8783e-09|  7.6103e-01|  5.0000e-01|  5.0000e-01|  5.0000e-01|   -6.836987|   -6.961812|   -7.431202|   -7.131314|   -7.107672|   -8.988800|    1.758802|
|         135|  6.2068e+00|  3.8783e-09|  7.6103e-01|  5.0000e-01|  5.0000e-01|  5.0000e-01|   -6.836818|   -6.961661|   -7.430956|   -7.131125|   -7.107526|   -8.988747|    1.758804|
|         136|  6.2058e+00|  3.8783e-09|  7.6103e-01|  5.0000e-01|  5.0000e-01|  5.0000e-01|   -6.836644|   -6.961506|   -7.430710|   -7.130930|   -7.107376|   -8.988696|    1.758806|
|         137|  6.2046e+00|  3.8782e-09|  7.6103e-01|  5.0000e-01|  5.0000e-01|  5.0000e-01|   -6.836466|   -6.961346|   -7.430464|   -7.130730|   -7.107223|   -8.988648|    1.758807|
|         138|  6.2041e+00|  3.8782e-09|  7.6103e-01|  5.0000e-01|  5.0000e-01|  5.0000e-01|   -6.836284|   -6.961184|   -7.430217|   -7.130523|   -7.107066|   -8.988602|    1.758809|
|         139|  6.2032e+00|  3.8781e-09|  7.6103e-01|  5.0000e-01|  5.0000e-01|  5.0000e-01|   -6.836097|   -6.961017|   -7.429969|   -7.130312|   -7.106906|   -8.988559|    1.758811|
|         140|  6.2028e+00|  3.8781e-09|  7.6103e-01|  5.0000e-01|  5.0000e-01|  5.0000e-01|   -6.835906|   -6.960846|   -7.429721|   -7.130094|   -7.106742|   -8.988519|    1.758813|
|         141|  6.2027e+00|  3.8780e-09|  7.6103e-01|  5.0000e-01|  5.0000e-01|  5.0000e-01|   -6.835711|   -6.960672|   -7.429473|   -7.129871|   -7.106575|   -8.988481|    1.758814|
|         142|  6.2020e+00|  3.8780e-09|  7.6103e-01|  5.0000e-01|  5.0000e-01|  5.0000e-01|   -6.835512|   -6.960494|   -7.429223|   -7.129643|   -7.106405|   -8.988446|    1.758816|
|         143|  6.2009e+00|  3.8780e-09|  7.6103e-01|  5.0000e-01|  5.0000e-01|  5.0000e-01|   -6.835309|   -6.960312|   -7.428974|   -7.129409|   -7.106231|   -8.988413|    1.758818|
|         144|  6.2008e+00|  3.8779e-09|  7.6103e-01|  5.0000e-01|  5.0000e-01|  5.0000e-01|   -6.835101|   -6.960126|   -7.428724|   -7.129169|   -7.106054|   -8.988383|    1.758820|
|         145|  6.2004e+00|  3.8779e-09|  7.6103e-01|  5.0000e-01|  5.0000e-01|  5.0000e-01|   -6.834890|   -6.959937|   -7.428474|   -7.128925|   -7.105874|   -8.988356|    1.758821|
|         146|  6.1999e+00|  3.8778e-09|  7.6103e-01|  5.0000e-01|  5.0000e-01|  5.0000e-01|   -6.834674|   -6.959744|   -7.428224|   -7.128675|   -7.105691|   -8.988331|    1.758823|
|         147|  6.1994e+00|  3.8778e-09|  7.6103e-01|  5.0000e-01|  5.0000e-01|  5.0000e-01|   -6.834455|   -6.959547|   -7.427973|   -7.128419|   -7.105504|   -8.988309|    1.758825|
|         148|  6.1992e+00|  3.8777e-09|  7.6103e-01|  5.0000e-01|  5.0000e-01|  5.0000e-01|   -6.834231|   -6.959347|   -7.427723|   -7.128158|   -7.105315|   -8.988289|    1.758826|
|         149|  6.1992e+00|  3.8777e-09|  7.6103e-01|  5.0000e-01|  5.0000e-01|  5.0000e-01|   -6.834003|   -6.959143|   -7.427471|   -7.127892|   -7.105122|   -8.988272|    1.758828|
|         150|  6.1993e+00|  3.8777e-09|  7.6103e-01|  5.0000e-01|  5.0000e-01|  5.0000e-01|   -6.833772|   -6.958935|   -7.427220|   -7.127621|   -7.104926|   -8.988257|    1.758830|
+-----------------------------------------------------------------------+
|        File Writing Summary       |              Filename             |
+-----------------------------------------------------------------------+
|SU2 binary restart                 |restart_flow.dat                   |
|Paraview                           |flow.vtu                           |
|Paraview surface                   |surface_flow.vtu                   |
+-----------------------------------------------------------------------+
+-------------------------------------------------------------------------------------------------------------------------------------------------------------------------------------+
|  Inner_Iter|   Time(sec)|      Min DT|      Max DT|     Min CFL|     Max CFL|     Avg CFL|    rms[Rho]|   rms[RhoU]|   rms[RhoV]|   rms[RhoW]|   rms[RhoE]|     rms[nu]|          CD|
+-------------------------------------------------------------------------------------------------------------------------------------------------------------------------------------+
|         151|  6.3430e+00|  3.8776e-09|  7.6103e-01|  5.0000e-01|  5.0000e-01|  5.0000e-01|   -6.833536|   -6.958724|   -7.426969|   -7.127345|   -7.104727|   -8.988245|    1.758831|
|         152|  6.3451e+00|  3.8776e-09|  7.6103e-01|  5.0000e-01|  5.0000e-01|  5.0000e-01|   -6.833297|   -6.958510|   -7.426717|   -7.127063|   -7.104525|   -8.988235|    1.758833|
|         153|  6.3451e+00|  3.8775e-09|  7.6103e-01|  5.0000e-01|  5.0000e-01|  5.0000e-01|   -6.833053|   -6.958292|   -7.426465|   -7.126776|   -7.104320|   -8.988228|    1.758835|
|         154|  6.3450e+00|  3.8775e-09|  7.6103e-01|  5.0000e-01|  5.0000e-01|  5.0000e-01|   -6.832806|   -6.958070|   -7.426213|   -7.126485|   -7.104111|   -8.988224|    1.758836|
|         155|  6.3442e+00|  3.8774e-09|  7.6103e-01|  5.0000e-01|  5.0000e-01|  5.0000e-01|   -6.832555|   -6.957845|   -7.425961|   -7.126188|   -7.103900|   -8.988222|    1.758838|
|         156|  6.3424e+00|  3.8774e-09|  7.6103e-01|  5.0000e-01|  5.0000e-01|  5.0000e-01|   -6.832300|   -6.957616|   -7.425708|   -7.125886|   -7.103686|   -8.988223|    1.758839|
|         157|  6.3411e+00|  3.8774e-09|  7.6103e-01|  5.0000e-01|  5.0000e-01|  5.0000e-01|   -6.832041|   -6.957385|   -7.425456|   -7.125579|   -7.103468|   -8.988226|    1.758841|
|         158|  6.3396e+00|  3.8773e-09|  7.6103e-01|  5.0000e-01|  5.0000e-01|  5.0000e-01|   -6.831779|   -6.957149|   -7.425203|   -7.125267|   -7.103248|   -8.988231|    1.758842|
|         159|  6.3381e+00|  3.8773e-09|  7.6103e-01|  5.0000e-01|  5.0000e-01|  5.0000e-01|   -6.831512|   -6.956910|   -7.424950|   -7.124950|   -7.103025|   -8.988239|    1.758844|
|         160|  6.3372e+00|  3.8772e-09|  7.6103e-01|  5.0000e-01|  5.0000e-01|  5.0000e-01|   -6.831242|   -6.956668|   -7.424697|   -7.124628|   -7.102798|   -8.988250|    1.758845|
|         161|  6.3353e+00|  3.8772e-09|  7.6103e-01|  5.0000e-01|  5.0000e-01|  5.0000e-01|   -6.830968|   -6.956423|   -7.424445|   -7.124301|   -7.102569|   -8.988263|    1.758847|
|         162|  6.3335e+00|  3.8771e-09|  7.6103e-01|  5.0000e-01|  5.0000e-01|  5.0000e-01|   -6.830691|   -6.956174|   -7.424192|   -7.123969|   -7.102337|   -8.988278|    1.758848|
|         163|  6.3315e+00|  3.8771e-09|  7.6103e-01|  5.0000e-01|  5.0000e-01|  5.0000e-01|   -6.830409|   -6.955921|   -7.423939|   -7.123632|   -7.102102|   -8.988296|    1.758850|
|         164|  6.3301e+00|  3.8771e-09|  7.6103e-01|  5.0000e-01|  5.0000e-01|  5.0000e-01|   -6.830124|   -6.955666|   -7.423685|   -7.123291|   -7.101863|   -8.988317|    1.758851|
|         165|  6.3312e+00|  3.8770e-09|  7.6103e-01|  5.0000e-01|  5.0000e-01|  5.0000e-01|   -6.829835|   -6.955407|   -7.423432|   -7.122944|   -7.101622|   -8.988340|    1.758853|
|         166|  6.3308e+00|  3.8770e-09|  7.6103e-01|  5.0000e-01|  5.0000e-01|  5.0000e-01|   -6.829543|   -6.955144|   -7.423179|   -7.122593|   -7.101378|   -8.988365|    1.758854|
|         167|  6.3295e+00|  3.8769e-09|  7.6103e-01|  5.0000e-01|  5.0000e-01|  5.0000e-01|   -6.829247|   -6.954879|   -7.422926|   -7.122237|   -7.101131|   -8.988393|    1.758856|
|         168|  6.3284e+00|  3.8769e-09|  7.6103e-01|  5.0000e-01|  5.0000e-01|  5.0000e-01|   -6.828947|   -6.954610|   -7.422673|   -7.121876|   -7.100881|   -8.988423|    1.758857|
|         169|  6.3267e+00|  3.8768e-09|  7.6103e-01|  5.0000e-01|  5.0000e-01|  5.0000e-01|   -6.828644|   -6.954337|   -7.422421|   -7.121511|   -7.100628|   -8.988456|    1.758859|
|         170|  6.3258e+00|  3.8768e-09|  7.6103e-01|  5.0000e-01|  5.0000e-01|  5.0000e-01|   -6.828337|   -6.954062|   -7.422168|   -7.121141|   -7.100373|   -8.988491|    1.758860|
|         171|  6.3257e+00|  3.8768e-09|  7.6103e-01|  5.0000e-01|  5.0000e-01|  5.0000e-01|   -6.828027|   -6.953783|   -7.421915|   -7.120766|   -7.100114|   -8.988528|    1.758861|
|         172|  6.3242e+00|  3.8767e-09|  7.6103e-01|  5.0000e-01|  5.0000e-01|  5.0000e-01|   -6.827713|   -6.953501|   -7.421663|   -7.120387|   -7.099853|   -8.988568|    1.758863|
|         173|  6.3230e+00|  3.8767e-09|  7.6103e-01|  5.0000e-01|  5.0000e-01|  5.0000e-01|   -6.827395|   -6.953215|   -7.421410|   -7.120003|   -7.099588|   -8.988611|    1.758864|
|         174|  6.3220e+00|  3.8766e-09|  7.6103e-01|  5.0000e-01|  5.0000e-01|  5.0000e-01|   -6.827074|   -6.952927|   -7.421158|   -7.119615|   -7.099321|   -8.988656|    1.758865|
|         175|  6.3210e+00|  3.8766e-09|  7.6103e-01|  5.0000e-01|  5.0000e-01|  5.0000e-01|   -6.826750|   -6.952635|   -7.420906|   -7.119222|   -7.099051|   -8.988703|    1.758867|
|         176|  6.3204e+00|  3.8765e-09|  7.6103e-01|  5.0000e-01|  5.0000e-01|  5.0000e-01|   -6.826421|   -6.952340|   -7.420654|   -7.118824|   -7.098778|   -8.988752|    1.758868|
|         177|  6.3195e+00|  3.8765e-09|  7.6103e-01|  5.0000e-01|  5.0000e-01|  5.0000e-01|   -6.826090|   -6.952041|   -7.420402|   -7.118423|   -7.098503|   -8.988804|    1.758869|
|         178|  6.3185e+00|  3.8765e-09|  7.6103e-01|  5.0000e-01|  5.0000e-01|  5.0000e-01|   -6.825755|   -6.951740|   -7.420150|   -7.118016|   -7.098224|   -8.988859|    1.758870|
|         179|  6.3176e+00|  3.8764e-09|  7.6103e-01|  5.0000e-01|  5.0000e-01|  5.0000e-01|   -6.825417|   -6.951435|   -7.419899|   -7.117606|   -7.097943|   -8.988915|    1.758872|
|         180|  6.3158e+00|  3.8764e-09|  7.6103e-01|  5.0000e-01|  5.0000e-01|  5.0000e-01|   -6.825075|   -6.951127|   -7.419648|   -7.117191|   -7.097659|   -8.988974|    1.758873|
|         181|  6.3140e+00|  3.8763e-09|  7.6103e-01|  5.0000e-01|  5.0000e-01|  5.0000e-01|   -6.824730|   -6.950816|   -7.419397|   -7.116772|   -7.097372|   -8.989036|    1.758874|
|         182|  6.3125e+00|  3.8763e-09|  7.6103e-01|  5.0000e-01|  5.0000e-01|  5.0000e-01|   -6.824382|   -6.950502|   -7.419147|   -7.116349|   -7.097083|   -8.989099|    1.758875|
|         183|  6.3114e+00|  3.8762e-09|  7.6103e-01|  5.0000e-01|  5.0000e-01|  5.0000e-01|   -6.824031|   -6.950185|   -7.418897|   -7.115922|   -7.096790|   -8.989165|    1.758877|
|         184|  6.3096e+00|  3.8762e-09|  7.6103e-01|  5.0000e-01|  5.0000e-01|  5.0000e-01|   -6.823676|   -6.949865|   -7.418647|   -7.115490|   -7.096496|   -8.989234|    1.758878|
|         185|  6.3084e+00|  3.8762e-09|  7.6103e-01|  5.0000e-01|  5.0000e-01|  5.0000e-01|   -6.823318|   -6.949542|   -7.418398|   -7.115055|   -7.096198|   -8.989305|    1.758879|
|         186|  6.3064e+00|  3.8761e-09|  7.6103e-01|  5.0000e-01|  5.0000e-01|  5.0000e-01|   -6.822958|   -6.949216|   -7.418149|   -7.114615|   -7.095898|   -8.989378|    1.758880|
|         187|  6.3046e+00|  3.8761e-09|  7.6103e-01|  5.0000e-01|  5.0000e-01|  5.0000e-01|   -6.822594|   -6.948887|   -7.417901|   -7.114172|   -7.095596|   -8.989453|    1.758881|
|         188|  6.3029e+00|  3.8760e-09|  7.6103e-01|  5.0000e-01|  5.0000e-01|  5.0000e-01|   -6.822227|   -6.948555|   -7.417653|   -7.113725|   -7.095291|   -8.989531|    1.758882|
|         189|  6.3016e+00|  3.8760e-09|  7.6103e-01|  5.0000e-01|  5.0000e-01|  5.0000e-01|   -6.821856|   -6.948220|   -7.417406|   -7.113274|   -7.094983|   -8.989611|    1.758884|
|         190|  6.3004e+00|  3.8759e-09|  7.6103e-01|  5.0000e-01|  5.0000e-01|  5.0000e-01|   -6.821483|   -6.947883|   -7.417159|   -7.112819|   -7.094673|   -8.989693|    1.758885|
|         191|  6.2996e+00|  3.8759e-09|  7.6103e-01|  5.0000e-01|  5.0000e-01|  5.0000e-01|   -6.821108|   -6.947542|   -7.416913|   -7.112361|   -7.094361|   -8.989777|    1.758886|
|         192|  6.2986e+00|  3.8759e-09|  7.6103e-01|  5.0000e-01|  5.0000e-01|  5.0000e-01|   -6.820729|   -6.947199|   -7.416667|   -7.111899|   -7.094046|   -8.989864|    1.758887|
|         193|  6.2972e+00|  3.8758e-09|  7.6103e-01|  5.0000e-01|  5.0000e-01|  5.0000e-01|   -6.820347|   -6.946853|   -7.416422|   -7.111433|   -7.093728|   -8.989953|    1.758888|
|         194|  6.2957e+00|  3.8758e-09|  7.6103e-01|  5.0000e-01|  5.0000e-01|  5.0000e-01|   -6.819963|   -6.946505|   -7.416178|   -7.110964|   -7.093409|   -8.990044|    1.758889|
|         195|  6.2943e+00|  3.8757e-09|  7.6103e-01|  5.0000e-01|  5.0000e-01|  5.0000e-01|   -6.819576|   -6.946153|   -7.415934|   -7.110492|   -7.093087|   -8.990138|    1.758890|
|         196|  6.2927e+00|  3.8757e-09|  7.6103e-01|  5.0000e-01|  5.0000e-01|  5.0000e-01|   -6.819186|   -6.945800|   -7.415691|   -7.110016|   -7.092763|   -8.990234|    1.758891|
|         197|  6.2913e+00|  3.8756e-09|  7.6103e-01|  5.0000e-01|  5.0000e-01|  5.0000e-01|   -6.818793|   -6.945443|   -7.415449|   -7.109536|   -7.092437|   -8.990332|    1.758892|
|         198|  6.2902e+00|  3.8756e-09|  7.6103e-01|  5.0000e-01|  5.0000e-01|  5.0000e-01|   -6.818398|   -6.945084|   -7.415207|   -7.109054|   -7.092108|   -8.990432|    1.758893|
|         199|  6.2887e+00|  3.8756e-09|  7.6103e-01|  5.0000e-01|  5.0000e-01|  5.0000e-01|   -6.818000|   -6.944722|   -7.414966|   -7.108568|   -7.091777|   -8.990535|    1.758894|
|         200|  6.2874e+00|  3.8755e-09|  7.6103e-01|  5.0000e-01|  5.0000e-01|  5.0000e-01|   -6.817600|   -6.944358|   -7.414725|   -7.108079|   -7.091444|   -8.990639|    1.758895|
|         201|  6.2864e+00|  3.8755e-09|  7.6103e-01|  5.0000e-01|  5.0000e-01|  5.0000e-01|   -6.817197|   -6.943992|   -7.414485|   -7.107587|   -7.091109|   -8.990746|    1.758896|
|         202|  6.2854e+00|  3.8754e-09|  7.6103e-01|  5.0000e-01|  5.0000e-01|  5.0000e-01|   -6.816792|   -6.943623|   -7.414246|   -7.107092|   -7.090771|   -8.990855|    1.758897|
|         203|  6.2842e+00|  3.8754e-09|  7.6103e-01|  5.0000e-01|  5.0000e-01|  5.0000e-01|   -6.816384|   -6.943251|   -7.414008|   -7.106593|   -7.090432|   -8.990966|    1.758898|
|         204|  6.2829e+00|  3.8753e-09|  7.6103e-01|  5.0000e-01|  5.0000e-01|  5.0000e-01|   -6.815974|   -6.942877|   -7.413770|   -7.106092|   -7.090090|   -8.991080|    1.758899|
|         205|  6.2821e+00|  3.8753e-09|  7.6103e-01|  5.0000e-01|  5.0000e-01|  5.0000e-01|   -6.815561|   -6.942501|   -7.413534|   -7.105587|   -7.089747|   -8.991195|    1.758900|
|         206|  6.2807e+00|  3.8753e-09|  7.6103e-01|  5.0000e-01|  5.0000e-01|  5.0000e-01|   -6.815146|   -6.942123|   -7.413298|   -7.105080|   -7.089401|   -8.991313|    1.758901|
|         207|  6.2803e+00|  3.8752e-09|  7.6103e-01|  5.0000e-01|  5.0000e-01|  5.0000e-01|   -6.814728|   -6.941742|   -7.413063|   -7.104570|   -7.089053|   -8.991433|    1.758901|
|         208|  6.2788e+00|  3.8752e-09|  7.6103e-01|  5.0000e-01|  5.0000e-01|  5.0000e-01|   -6.814308|   -6.941359|   -7.412828|   -7.104057|   -7.088704|   -8.991555|    1.758902|
|         209|  6.2775e+00|  3.8751e-09|  7.6103e-01|  5.0000e-01|  5.0000e-01|  5.0000e-01|   -6.813886|   -6.940973|   -7.412595|   -7.103542|   -7.088352|   -8.991679|    1.758903|
|         210|  6.2768e+00|  3.8751e-09|  7.6103e-01|  5.0000e-01|  5.0000e-01|  5.0000e-01|   -6.813462|   -6.940586|   -7.412363|   -7.103024|   -7.087999|   -8.991806|    1.758904|
|         211|  6.2765e+00|  3.8750e-09|  7.6103e-01|  5.0000e-01|  5.0000e-01|  5.0000e-01|   -6.813036|   -6.940196|   -7.412132|   -7.102503|   -7.087644|   -8.991934|    1.758905|
|         212|  6.2752e+00|  3.8750e-09|  7.6103e-01|  5.0000e-01|  5.0000e-01|  5.0000e-01|   -6.812608|   -6.939804|   -7.411901|   -7.101980|   -7.087287|   -8.992064|    1.758906|
|         213|  6.2739e+00|  3.8750e-09|  7.6103e-01|  5.0000e-01|  5.0000e-01|  5.0000e-01|   -6.812178|   -6.939410|   -7.411672|   -7.101455|   -7.086928|   -8.992197|    1.758906|
|         214|  6.2727e+00|  3.8749e-09|  7.6103e-01|  5.0000e-01|  5.0000e-01|  5.0000e-01|   -6.811746|   -6.939014|   -7.411444|   -7.100927|   -7.086567|   -8.992332|    1.758907|
|         215|  6.2720e+00|  3.8749e-09|  7.6103e-01|  5.0000e-01|  5.0000e-01|  5.0000e-01|   -6.811312|   -6.938616|   -7.411216|   -7.100397|   -7.086205|   -8.992469|    1.758908|
|         216|  6.2712e+00|  3.8748e-09|  7.6103e-01|  5.0000e-01|  5.0000e-01|  5.0000e-01|   -6.810876|   -6.938216|   -7.410990|   -7.099865|   -7.085841|   -8.992607|    1.758909|
|         217|  6.2700e+00|  3.8748e-09|  7.6103e-01|  5.0000e-01|  5.0000e-01|  5.0000e-01|   -6.810438|   -6.937814|   -7.410765|   -7.099330|   -7.085476|   -8.992748|    1.758909|
|         218|  6.2688e+00|  3.8747e-09|  7.6103e-01|  5.0000e-01|  5.0000e-01|  5.0000e-01|   -6.809998|   -6.937410|   -7.410541|   -7.098794|   -7.085109|   -8.992891|    1.758910|
|         219|  6.2675e+00|  3.8747e-09|  7.6103e-01|  5.0000e-01|  5.0000e-01|  5.0000e-01|   -6.809557|   -6.937004|   -7.410319|   -7.098255|   -7.084740|   -8.993036|    1.758911|
|         220|  6.2668e+00|  3.8747e-09|  7.6103e-01|  5.0000e-01|  5.0000e-01|  5.0000e-01|   -6.809114|   -6.936596|   -7.410097|   -7.097714|   -7.084370|   -8.993183|    1.758911|
|         221|  6.2653e+00|  3.8746e-09|  7.6103e-01|  5.0000e-01|  5.0000e-01|  5.0000e-01|   -6.808669|   -6.936187|   -7.409877|   -7.097172|   -7.083999|   -8.993332|    1.758912|
|         222|  6.2641e+00|  3.8746e-09|  7.6103e-01|  5.0000e-01|  5.0000e-01|  5.0000e-01|   -6.808223|   -6.935775|   -7.409658|   -7.096627|   -7.083626|   -8.993483|    1.758913|
|         223|  6.2624e+00|  3.8745e-09|  7.6103e-01|  5.0000e-01|  5.0000e-01|  5.0000e-01|   -6.807775|   -6.935362|   -7.409440|   -7.096081|   -7.083251|   -8.993636|    1.758913|
|         224|  6.2607e+00|  3.8745e-09|  7.6103e-01|  5.0000e-01|  5.0000e-01|  5.0000e-01|   -6.807326|   -6.934948|   -7.409223|   -7.095533|   -7.082876|   -8.993791|    1.758914|
|         225|  6.2598e+00|  3.8744e-09|  7.6103e-01|  5.0000e-01|  5.0000e-01|  5.0000e-01|   -6.806875|   -6.934531|   -7.409008|   -7.094984|   -7.082499|   -8.993948|    1.758915|
|         226|  6.2591e+00|  3.8744e-09|  7.6103e-01|  5.0000e-01|  5.0000e-01|  5.0000e-01|   -6.806423|   -6.934114|   -7.408794|   -7.094432|   -7.082120|   -8.994107|    1.758915|
|         227|  6.2582e+00|  3.8744e-09|  7.6103e-01|  5.0000e-01|  5.0000e-01|  5.0000e-01|   -6.805970|   -6.933694|   -7.408581|   -7.093880|   -7.081741|   -8.994268|    1.758916|
|         228|  6.2575e+00|  3.8743e-09|  7.6103e-01|  5.0000e-01|  5.0000e-01|  5.0000e-01|   -6.805515|   -6.933273|   -7.408370|   -7.093325|   -7.081360|   -8.994431|    1.758916|
|         229|  6.2568e+00|  3.8743e-09|  7.6103e-01|  5.0000e-01|  5.0000e-01|  5.0000e-01|   -6.805059|   -6.932851|   -7.408160|   -7.092770|   -7.080978|   -8.994596|    1.758917|
|         230|  6.2561e+00|  3.8742e-09|  7.6103e-01|  5.0000e-01|  5.0000e-01|  5.0000e-01|   -6.804602|   -6.932427|   -7.407951|   -7.092212|   -7.080595|   -8.994763|    1.758918|
|         231|  6.2549e+00|  3.8742e-09|  7.6103e-01|  5.0000e-01|  5.0000e-01|  5.0000e-01|   -6.804144|   -6.932002|   -7.407744|   -7.091654|   -7.080211|   -8.994932|    1.758918|
|         232|  6.2539e+00|  3.8741e-09|  7.6103e-01|  5.0000e-01|  5.0000e-01|  5.0000e-01|   -6.803684|   -6.931575|   -7.407538|   -7.091094|   -7.079825|   -8.995102|    1.758919|
|         233|  6.2536e+00|  3.8741e-09|  7.6103e-01|  5.0000e-01|  5.0000e-01|  5.0000e-01|   -6.803223|   -6.931147|   -7.407333|   -7.090533|   -7.079439|   -8.995275|    1.758919|
|         234|  6.2529e+00|  3.8741e-09|  7.6103e-01|  5.0000e-01|  5.0000e-01|  5.0000e-01|   -6.802762|   -6.930718|   -7.407130|   -7.089971|   -7.079051|   -8.995449|    1.758920|
|         235|  6.2519e+00|  3.8740e-09|  7.6103e-01|  5.0000e-01|  5.0000e-01|  5.0000e-01|   -6.802299|   -6.930288|   -7.406928|   -7.089408|   -7.078663|   -8.995626|    1.758920|
|         236|  6.2508e+00|  3.8740e-09|  7.6103e-01|  5.0000e-01|  5.0000e-01|  5.0000e-01|   -6.801835|   -6.929856|   -7.406728|   -7.088843|   -7.078274|   -8.995804|    1.758920|
|         237|  6.2500e+00|  3.8739e-09|  7.6103e-01|  5.0000e-01|  5.0000e-01|  5.0000e-01|   -6.801370|   -6.929423|   -7.406529|   -7.088278|   -7.077883|   -8.995984|    1.758921|
|         238|  6.2493e+00|  3.8739e-09|  7.6103e-01|  5.0000e-01|  5.0000e-01|  5.0000e-01|   -6.800905|   -6.928990|   -7.406332|   -7.087712|   -7.077492|   -8.996166|    1.758921|
|         239|  6.2490e+00|  3.8738e-09|  7.6103e-01|  5.0000e-01|  5.0000e-01|  5.0000e-01|   -6.800439|   -6.928555|   -7.406136|   -7.087145|   -7.077100|   -8.996350|    1.758922|
|         240|  6.2482e+00|  3.8738e-09|  7.6103e-01|  5.0000e-01|  5.0000e-01|  5.0000e-01|   -6.799971|   -6.928118|   -7.405942|   -7.086576|   -7.076708|   -8.996536|    1.758922|
|         241|  6.2468e+00|  3.8738e-09|  7.6103e-01|  5.0000e-01|  5.0000e-01|  5.0000e-01|   -6.799503|   -6.927681|   -7.405749|   -7.086008|   -7.076314|   -8.996723|    1.758922|
|         242|  6.2455e+00|  3.8737e-09|  7.6103e-01|  5.0000e-01|  5.0000e-01|  5.0000e-01|   -6.799036|   -6.927245|   -7.405558|   -7.085439|   -7.075921|   -8.996912|    1.758923|
|         243|  6.2451e+00|  3.8737e-09|  7.6103e-01|  5.0000e-01|  5.0000e-01|  5.0000e-01|   -6.798568|   -6.926808|   -7.405368|   -7.084869|   -7.075527|   -8.997103|    1.758923|
|         244|  6.2442e+00|  3.8736e-09|  7.6103e-01|  5.0000e-01|  5.0000e-01|  5.0000e-01|   -6.798099|   -6.926370|   -7.405180|   -7.084299|   -7.075133|   -8.997296|    1.758924|
|         245|  6.2434e+00|  3.8736e-09|  7.6103e-01|  5.0000e-01|  5.0000e-01|  5.0000e-01|   -6.797629|   -6.925930|   -7.404993|   -7.083728|   -7.074738|   -8.997491|    1.758924|
|         246|  6.2421e+00|  3.8735e-09|  7.6103e-01|  5.0000e-01|  5.0000e-01|  5.0000e-01|   -6.797159|   -6.925490|   -7.404808|   -7.083157|   -7.074342|   -8.997687|    1.758924|
|         247|  6.2407e+00|  3.8735e-09|  7.6103e-01|  5.0000e-01|  5.0000e-01|  5.0000e-01|   -6.796688|   -6.925050|   -7.404625|   -7.082585|   -7.073946|   -8.997886|    1.758924|
|         248|  6.2402e+00|  3.8735e-09|  7.6103e-01|  5.0000e-01|  5.0000e-01|  5.0000e-01|   -6.796217|   -6.924608|   -7.404443|   -7.082012|   -7.073549|   -8.998086|    1.758925|
|         249|  6.2394e+00|  3.8734e-09|  7.6103e-01|  5.0000e-01|  5.0000e-01|  5.0000e-01|   -6.795746|   -6.924165|   -7.404263|   -7.081440|   -7.073151|   -8.998287|    1.758925|
|         250|  6.2383e+00|  3.8734e-09|  7.6103e-01|  5.0000e-01|  5.0000e-01|  5.0000e-01|   -6.795273|   -6.923722|   -7.404084|   -7.080866|   -7.072753|   -8.998491|    1.758925|
|         251|  6.2373e+00|  3.8733e-09|  7.6103e-01|  5.0000e-01|  5.0000e-01|  5.0000e-01|   -6.794801|   -6.923278|   -7.403908|   -7.080293|   -7.072354|   -8.998696|    1.758926|
|         252|  6.2364e+00|  3.8733e-09|  7.6103e-01|  5.0000e-01|  5.0000e-01|  5.0000e-01|   -6.794328|   -6.922834|   -7.403733|   -7.079719|   -7.071955|   -8.998903|    1.758926|
|         253|  6.2354e+00|  3.8732e-09|  7.6103e-01|  5.0000e-01|  5.0000e-01|  5.0000e-01|   -6.793855|   -6.922388|   -7.403559|   -7.079145|   -7.071556|   -8.999112|    1.758926|
|         254|  6.2347e+00|  3.8732e-09|  7.6103e-01|  5.0000e-01|  5.0000e-01|  5.0000e-01|   -6.793381|   -6.921942|   -7.403387|   -7.078571|   -7.071155|   -8.999322|    1.758926|
|         255|  6.2342e+00|  3.8731e-09|  7.6103e-01|  5.0000e-01|  5.0000e-01|  5.0000e-01|   -6.792907|   -6.921496|   -7.403217|   -7.077997|   -7.070755|   -8.999534|    1.758926|
|         256|  6.2335e+00|  3.8731e-09|  7.6103e-01|  5.0000e-01|  5.0000e-01|  5.0000e-01|   -6.792433|   -6.921049|   -7.403049|   -7.077422|   -7.070354|   -8.999747|    1.758926|
|         257|  6.2327e+00|  3.8731e-09|  7.6103e-01|  5.0000e-01|  5.0000e-01|  5.0000e-01|   -6.791959|   -6.920601|   -7.402882|   -7.076848|   -7.069953|   -8.999963|    1.758927|
|         258|  6.2321e+00|  3.8730e-09|  7.6103e-01|  5.0000e-01|  5.0000e-01|  5.0000e-01|   -6.791484|   -6.920153|   -7.402718|   -7.076273|   -7.069551|   -9.000180|    1.758927|
|         259|  6.2314e+00|  3.8730e-09|  7.6103e-01|  5.0000e-01|  5.0000e-01|  5.0000e-01|   -6.791010|   -6.919704|   -7.402555|   -7.075698|   -7.069149|   -9.000398|    1.758927|
|         260|  6.2305e+00|  3.8729e-09|  7.6103e-01|  5.0000e-01|  5.0000e-01|  5.0000e-01|   -6.790535|   -6.919255|   -7.402393|   -7.075124|   -7.068747|   -9.000618|    1.758927|
|         261|  6.2293e+00|  3.8729e-09|  7.6103e-01|  5.0000e-01|  5.0000e-01|  5.0000e-01|   -6.790061|   -6.918805|   -7.402234|   -7.074550|   -7.068344|   -9.000840|    1.758927|
|         262|  6.2285e+00|  3.8728e-09|  7.6103e-01|  5.0000e-01|  5.0000e-01|  5.0000e-01|   -6.789586|   -6.918355|   -7.402076|   -7.073976|   -7.067941|   -9.001064|    1.758927|
|         263|  6.2273e+00|  3.8728e-09|  7.6103e-01|  5.0000e-01|  5.0000e-01|  5.0000e-01|   -6.789111|   -6.917905|   -7.401920|   -7.073401|   -7.067538|   -9.001289|    1.758927|
|         264|  6.2266e+00|  3.8728e-09|  7.6103e-01|  5.0000e-01|  5.0000e-01|  5.0000e-01|   -6.788637|   -6.917454|   -7.401766|   -7.072828|   -7.067135|   -9.001515|    1.758927|
|         265|  6.2259e+00|  3.8727e-09|  7.6103e-01|  5.0000e-01|  5.0000e-01|  5.0000e-01|   -6.788162|   -6.917003|   -7.401614|   -7.072254|   -7.066731|   -9.001744|    1.758927|
|         266|  6.2252e+00|  3.8727e-09|  7.6103e-01|  5.0000e-01|  5.0000e-01|  5.0000e-01|   -6.787688|   -6.916552|   -7.401463|   -7.071681|   -7.066328|   -9.001973|    1.758927|
|         267|  6.2243e+00|  3.8726e-09|  7.6103e-01|  5.0000e-01|  5.0000e-01|  5.0000e-01|   -6.787214|   -6.916100|   -7.401314|   -7.071108|   -7.065924|   -9.002205|    1.758927|
|         268|  6.2231e+00|  3.8726e-09|  7.6103e-01|  5.0000e-01|  5.0000e-01|  5.0000e-01|   -6.786740|   -6.915649|   -7.401167|   -7.070536|   -7.065521|   -9.002438|    1.758927|
|         269|  6.2218e+00|  3.8725e-09|  7.6103e-01|  5.0000e-01|  5.0000e-01|  5.0000e-01|   -6.786266|   -6.915197|   -7.401022|   -7.069964|   -7.065117|   -9.002672|    1.758927|
|         270|  6.2210e+00|  3.8725e-09|  7.6103e-01|  5.0000e-01|  5.0000e-01|  5.0000e-01|   -6.785792|   -6.914745|   -7.400879|   -7.069393|   -7.064713|   -9.002908|    1.758927|
|         271|  6.2202e+00|  3.8725e-09|  7.6103e-01|  5.0000e-01|  5.0000e-01|  5.0000e-01|   -6.785319|   -6.914293|   -7.400737|   -7.068822|   -7.064310|   -9.003145|    1.758927|
|         272|  6.2191e+00|  3.8724e-09|  7.6103e-01|  5.0000e-01|  5.0000e-01|  5.0000e-01|   -6.784847|   -6.913841|   -7.400598|   -7.068252|   -7.063906|   -9.003384|    1.758927|
|         273|  6.2182e+00|  3.8724e-09|  7.6103e-01|  5.0000e-01|  5.0000e-01|  5.0000e-01|   -6.784374|   -6.913390|   -7.400460|   -7.067683|   -7.063503|   -9.003625|    1.758927|
|         274|  6.2176e+00|  3.8723e-09|  7.6103e-01|  5.0000e-01|  5.0000e-01|  5.0000e-01|   -6.783903|   -6.912938|   -7.400324|   -7.067114|   -7.063099|   -9.003867|    1.758927|
|         275|  6.2165e+00|  3.8723e-09|  7.6103e-01|  5.0000e-01|  5.0000e-01|  5.0000e-01|   -6.783431|   -6.912486|   -7.400190|   -7.066546|   -7.062696|   -9.004110|    1.758927|
|         276|  6.2160e+00|  3.8722e-09|  7.6103e-01|  5.0000e-01|  5.0000e-01|  5.0000e-01|   -6.782961|   -6.912035|   -7.400058|   -7.065979|   -7.062293|   -9.004355|    1.758927|
|         277|  6.2155e+00|  3.8722e-09|  7.6103e-01|  5.0000e-01|  5.0000e-01|  5.0000e-01|   -6.782491|   -6.911583|   -7.399928|   -7.065413|   -7.061891|   -9.004601|    1.758927|
|         278|  6.2148e+00|  3.8722e-09|  7.6103e-01|  5.0000e-01|  5.0000e-01|  5.0000e-01|   -6.782021|   -6.911132|   -7.399799|   -7.064847|   -7.061488|   -9.004849|    1.758926|
|         279|  6.2138e+00|  3.8721e-09|  7.6103e-01|  5.0000e-01|  5.0000e-01|  5.0000e-01|   -6.781552|   -6.910682|   -7.399673|   -7.064283|   -7.061086|   -9.005098|    1.758926|
|         280|  6.2132e+00|  3.8721e-09|  7.6103e-01|  5.0000e-01|  5.0000e-01|  5.0000e-01|   -6.781084|   -6.910231|   -7.399549|   -7.063719|   -7.060685|   -9.005348|    1.758926|
|         281|  6.2124e+00|  3.8720e-09|  7.6103e-01|  5.0000e-01|  5.0000e-01|  5.0000e-01|   -6.780617|   -6.909781|   -7.399426|   -7.063157|   -7.060283|   -9.005600|    1.758926|
|         282|  6.2117e+00|  3.8720e-09|  7.6103e-01|  5.0000e-01|  5.0000e-01|  5.0000e-01|   -6.780150|   -6.909331|   -7.399306|   -7.062596|   -7.059883|   -9.005854|    1.758926|
|         283|  6.2111e+00|  3.8719e-09|  7.6103e-01|  5.0000e-01|  5.0000e-01|  5.0000e-01|   -6.779684|   -6.908882|   -7.399187|   -7.062036|   -7.059482|   -9.006108|    1.758925|
|         284|  6.2108e+00|  3.8719e-09|  7.6103e-01|  5.0000e-01|  5.0000e-01|  5.0000e-01|   -6.779220|   -6.908433|   -7.399071|   -7.061476|   -7.059083|   -9.006364|    1.758925|
|         285|  6.2100e+00|  3.8719e-09|  7.6103e-01|  5.0000e-01|  5.0000e-01|  5.0000e-01|   -6.778756|   -6.907985|   -7.398956|   -7.060919|   -7.058683|   -9.006622|    1.758925|
|         286|  6.2091e+00|  3.8718e-09|  7.6103e-01|  5.0000e-01|  5.0000e-01|  5.0000e-01|   -6.778293|   -6.907538|   -7.398843|   -7.060362|   -7.058285|   -9.006881|    1.758925|
|         287|  6.2087e+00|  3.8718e-09|  7.6103e-01|  5.0000e-01|  5.0000e-01|  5.0000e-01|   -6.777831|   -6.907091|   -7.398733|   -7.059807|   -7.057887|   -9.007141|    1.758924|
|         288|  6.2084e+00|  3.8717e-09|  7.6103e-01|  5.0000e-01|  5.0000e-01|  5.0000e-01|   -6.777370|   -6.906644|   -7.398624|   -7.059253|   -7.057489|   -9.007402|    1.758924|
|         289|  6.2076e+00|  3.8717e-09|  7.6103e-01|  5.0000e-01|  5.0000e-01|  5.0000e-01|   -6.776910|   -6.906199|   -7.398517|   -7.058700|   -7.057092|   -9.007665|    1.758924|
|         290|  6.2068e+00|  3.8716e-09|  7.6103e-01|  5.0000e-01|  5.0000e-01|  5.0000e-01|   -6.776451|   -6.905754|   -7.398412|   -7.058148|   -7.056696|   -9.007929|    1.758923|
|         291|  6.2063e+00|  3.8716e-09|  7.6103e-01|  5.0000e-01|  5.0000e-01|  5.0000e-01|   -6.775993|   -6.905310|   -7.398310|   -7.057598|   -7.056301|   -9.008194|    1.758923|
|         292|  6.2058e+00|  3.8716e-09|  7.6103e-01|  5.0000e-01|  5.0000e-01|  5.0000e-01|   -6.775537|   -6.904866|   -7.398209|   -7.057050|   -7.055906|   -9.008461|    1.758923|
|         293|  6.2052e+00|  3.8715e-09|  7.6103e-01|  5.0000e-01|  5.0000e-01|  5.0000e-01|   -6.775081|   -6.904423|   -7.398111|   -7.056503|   -7.055512|   -9.008729|    1.758922|
|         294|  6.2047e+00|  3.8715e-09|  7.6103e-01|  5.0000e-01|  5.0000e-01|  5.0000e-01|   -6.774627|   -6.903982|   -7.398014|   -7.055958|   -7.055119|   -9.008998|    1.758922|
|         295|  6.2037e+00|  3.8714e-09|  7.6103e-01|  5.0000e-01|  5.0000e-01|  5.0000e-01|   -6.774175|   -6.903541|   -7.397919|   -7.055414|   -7.054727|   -9.009268|    1.758922|
|         296|  6.2028e+00|  3.8714e-09|  7.6103e-01|  5.0000e-01|  5.0000e-01|  5.0000e-01|   -6.773723|   -6.903101|   -7.397827|   -7.054872|   -7.054335|   -9.009540|    1.758921|
|         297|  6.2022e+00|  3.8713e-09|  7.6103e-01|  5.0000e-01|  5.0000e-01|  5.0000e-01|   -6.773273|   -6.902662|   -7.397736|   -7.054331|   -7.053945|   -9.009813|    1.758921|
|         298|  6.2022e+00|  3.8713e-09|  7.6103e-01|  5.0000e-01|  5.0000e-01|  5.0000e-01|   -6.772824|   -6.902223|   -7.397648|   -7.053792|   -7.053555|   -9.010087|    1.758920|
|         299|  6.2019e+00|  3.8713e-09|  7.6103e-01|  5.0000e-01|  5.0000e-01|  5.0000e-01|   -6.772377|   -6.901786|   -7.397561|   -7.053256|   -7.053166|   -9.010362|    1.758920|
|         300|  6.2009e+00|  3.8712e-09|  7.6103e-01|  5.0000e-01|  5.0000e-01|  5.0000e-01|   -6.771931|   -6.901350|   -7.397477|   -7.052720|   -7.052779|   -9.010638|    1.758919|
+-----------------------------------------------------------------------+
|        File Writing Summary       |              Filename             |
+-----------------------------------------------------------------------+
|SU2 binary restart                 |restart_flow.dat                   |
|Paraview                           |flow.vtu                           |
|Paraview surface                   |surface_flow.vtu                   |
+-----------------------------------------------------------------------+
+-------------------------------------------------------------------------------------------------------------------------------------------------------------------------------------+
|  Inner_Iter|   Time(sec)|      Min DT|      Max DT|     Min CFL|     Max CFL|     Avg CFL|    rms[Rho]|   rms[RhoU]|   rms[RhoV]|   rms[RhoW]|   rms[RhoE]|     rms[nu]|          CD|
+-------------------------------------------------------------------------------------------------------------------------------------------------------------------------------------+
|         301|  6.2726e+00|  3.8712e-09|  7.6103e-01|  5.0000e-01|  5.0000e-01|  5.0000e-01|   -6.771486|   -6.900915|   -7.397394|   -7.052187|   -7.052392|   -9.010916|    1.758919|
|         302|  6.2747e+00|  3.8711e-09|  7.6103e-01|  5.0000e-01|  5.0000e-01|  5.0000e-01|   -6.771043|   -6.900481|   -7.397314|   -7.051656|   -7.052006|   -9.011195|    1.758918|
|         303|  6.2760e+00|  3.8711e-09|  7.6103e-01|  5.0000e-01|  5.0000e-01|  5.0000e-01|   -6.770602|   -6.900048|   -7.397236|   -7.051126|   -7.051622|   -9.011475|    1.758918|
|         304|  6.2772e+00|  3.8710e-09|  7.6103e-01|  5.0000e-01|  5.0000e-01|  5.0000e-01|   -6.770162|   -6.899616|   -7.397159|   -7.050599|   -7.051238|   -9.011756|    1.758917|
|         305|  6.2780e+00|  3.8710e-09|  7.6103e-01|  5.0000e-01|  5.0000e-01|  5.0000e-01|   -6.769723|   -6.899185|   -7.397085|   -7.050073|   -7.050855|   -9.012038|    1.758917|
|         306|  6.2779e+00|  3.8710e-09|  7.6103e-01|  5.0000e-01|  5.0000e-01|  5.0000e-01|   -6.769287|   -6.898756|   -7.397013|   -7.049549|   -7.050474|   -9.012321|    1.758916|
|         307|  6.2784e+00|  3.8709e-09|  7.6103e-01|  5.0000e-01|  5.0000e-01|  5.0000e-01|   -6.768851|   -6.898328|   -7.396943|   -7.049028|   -7.050094|   -9.012606|    1.758916|
|         308|  6.2791e+00|  3.8709e-09|  7.6103e-01|  5.0000e-01|  5.0000e-01|  5.0000e-01|   -6.768418|   -6.897901|   -7.396875|   -7.048508|   -7.049715|   -9.012891|    1.758915|
|         309|  6.2792e+00|  3.8708e-09|  7.6103e-01|  5.0000e-01|  5.0000e-01|  5.0000e-01|   -6.767986|   -6.897475|   -7.396809|   -7.047990|   -7.049337|   -9.013178|    1.758914|
|         310|  6.2789e+00|  3.8708e-09|  7.6103e-01|  5.0000e-01|  5.0000e-01|  5.0000e-01|   -6.767556|   -6.897050|   -7.396745|   -7.047475|   -7.048960|   -9.013465|    1.758914|
|         311|  6.2785e+00|  3.8707e-09|  7.6103e-01|  5.0000e-01|  5.0000e-01|  5.0000e-01|   -6.767128|   -6.896627|   -7.396683|   -7.046962|   -7.048584|   -9.013754|    1.758913|
|         312|  6.2781e+00|  3.8707e-09|  7.6103e-01|  5.0000e-01|  5.0000e-01|  5.0000e-01|   -6.766701|   -6.896205|   -7.396623|   -7.046451|   -7.048210|   -9.014044|    1.758912|
|         313|  6.2781e+00|  3.8707e-09|  7.6103e-01|  5.0000e-01|  5.0000e-01|  5.0000e-01|   -6.766277|   -6.895785|   -7.396566|   -7.045942|   -7.047837|   -9.014335|    1.758912|
|         314|  6.2781e+00|  3.8706e-09|  7.6103e-01|  5.0000e-01|  5.0000e-01|  5.0000e-01|   -6.765854|   -6.895366|   -7.396511|   -7.045436|   -7.047466|   -9.014627|    1.758911|
|         315|  6.2780e+00|  3.8706e-09|  7.6103e-01|  5.0000e-01|  5.0000e-01|  5.0000e-01|   -6.765433|   -6.894949|   -7.396458|   -7.044932|   -7.047096|   -9.014920|    1.758910|
|         316|  6.2777e+00|  3.8705e-09|  7.6103e-01|  5.0000e-01|  5.0000e-01|  5.0000e-01|   -6.765014|   -6.894533|   -7.396406|   -7.044430|   -7.046727|   -9.015214|    1.758910|
|         317|  6.2773e+00|  3.8705e-09|  7.6103e-01|  5.0000e-01|  5.0000e-01|  5.0000e-01|   -6.764597|   -6.894118|   -7.396357|   -7.043930|   -7.046359|   -9.015508|    1.758909|
|         318|  6.2769e+00|  3.8704e-09|  7.6103e-01|  5.0000e-01|  5.0000e-01|  5.0000e-01|   -6.764182|   -6.893705|   -7.396310|   -7.043433|   -7.045993|   -9.015804|    1.758908|
|         319|  6.2766e+00|  3.8704e-09|  7.6103e-01|  5.0000e-01|  5.0000e-01|  5.0000e-01|   -6.763769|   -6.893294|   -7.396266|   -7.042939|   -7.045629|   -9.016101|    1.758908|
|         320|  6.2763e+00|  3.8704e-09|  7.6103e-01|  5.0000e-01|  5.0000e-01|  5.0000e-01|   -6.763358|   -6.892884|   -7.396223|   -7.042446|   -7.045266|   -9.016399|    1.758907|
|         321|  6.2759e+00|  3.8703e-09|  7.6103e-01|  5.0000e-01|  5.0000e-01|  5.0000e-01|   -6.762949|   -6.892476|   -7.396183|   -7.041957|   -7.044904|   -9.016698|    1.758906|
|         322|  6.2754e+00|  3.8703e-09|  7.6103e-01|  5.0000e-01|  5.0000e-01|  5.0000e-01|   -6.762543|   -6.892069|   -7.396145|   -7.041470|   -7.044545|   -9.016997|    1.758905|
|         323|  6.2755e+00|  3.8702e-09|  7.6103e-01|  5.0000e-01|  5.0000e-01|  5.0000e-01|   -6.762138|   -6.891664|   -7.396109|   -7.040985|   -7.044186|   -9.017298|    1.758904|
|         324|  6.2750e+00|  3.8702e-09|  7.6103e-01|  5.0000e-01|  5.0000e-01|  5.0000e-01|   -6.761736|   -6.891261|   -7.396075|   -7.040503|   -7.043829|   -9.017600|    1.758904|
|         325|  6.2748e+00|  3.8701e-09|  7.6103e-01|  5.0000e-01|  5.0000e-01|  5.0000e-01|   -6.761335|   -6.890860|   -7.396043|   -7.040023|   -7.043474|   -9.017902|    1.758903|
|         326|  6.2745e+00|  3.8701e-09|  7.6103e-01|  5.0000e-01|  5.0000e-01|  5.0000e-01|   -6.760937|   -6.890460|   -7.396014|   -7.039546|   -7.043121|   -9.018205|    1.758902|
|         327|  6.2742e+00|  3.8701e-09|  7.6103e-01|  5.0000e-01|  5.0000e-01|  5.0000e-01|   -6.760541|   -6.890063|   -7.395986|   -7.039072|   -7.042769|   -9.018510|    1.758901|
|         328|  6.2738e+00|  3.8700e-09|  7.6103e-01|  5.0000e-01|  5.0000e-01|  5.0000e-01|   -6.760147|   -6.889667|   -7.395961|   -7.038601|   -7.042419|   -9.018815|    1.758900|
|         329|  6.2740e+00|  3.8700e-09|  7.6103e-01|  5.0000e-01|  5.0000e-01|  5.0000e-01|   -6.759756|   -6.889273|   -7.395939|   -7.038132|   -7.042070|   -9.019121|    1.758899|
|         330|  6.2737e+00|  3.8699e-09|  7.6103e-01|  5.0000e-01|  5.0000e-01|  5.0000e-01|   -6.759367|   -6.888880|   -7.395918|   -7.037666|   -7.041723|   -9.019428|    1.758898|
|         331|  6.2739e+00|  3.8699e-09|  7.6103e-01|  5.0000e-01|  5.0000e-01|  5.0000e-01|   -6.758980|   -6.888490|   -7.395900|   -7.037202|   -7.041378|   -9.019735|    1.758898|
|         332|  6.2734e+00|  3.8698e-09|  7.6103e-01|  5.0000e-01|  5.0000e-01|  5.0000e-01|   -6.758595|   -6.888101|   -7.395883|   -7.036741|   -7.041035|   -9.020044|    1.758897|
|         333|  6.2733e+00|  3.8698e-09|  7.6103e-01|  5.0000e-01|  5.0000e-01|  5.0000e-01|   -6.758213|   -6.887715|   -7.395869|   -7.036283|   -7.040693|   -9.020353|    1.758896|
|         334|  6.2725e+00|  3.8698e-09|  7.6103e-01|  5.0000e-01|  5.0000e-01|  5.0000e-01|   -6.757833|   -6.887330|   -7.395858|   -7.035828|   -7.040353|   -9.020663|    1.758895|
|         335|  6.2724e+00|  3.8697e-09|  7.6103e-01|  5.0000e-01|  5.0000e-01|  5.0000e-01|   -6.757456|   -6.886947|   -7.395848|   -7.035376|   -7.040015|   -9.020974|    1.758894|
|         336|  6.2723e+00|  3.8697e-09|  7.6103e-01|  5.0000e-01|  5.0000e-01|  5.0000e-01|   -6.757081|   -6.886567|   -7.395841|   -7.034926|   -7.039679|   -9.021286|    1.758893|
|         337|  6.2720e+00|  3.8696e-09|  7.6103e-01|  5.0000e-01|  5.0000e-01|  5.0000e-01|   -6.756708|   -6.886188|   -7.395836|   -7.034480|   -7.039345|   -9.021598|    1.758892|
|         338|  6.2719e+00|  3.8696e-09|  7.6103e-01|  5.0000e-01|  5.0000e-01|  5.0000e-01|   -6.756338|   -6.885811|   -7.395833|   -7.034036|   -7.039012|   -9.021912|    1.758891|
|         339|  6.2716e+00|  3.8695e-09|  7.6103e-01|  5.0000e-01|  5.0000e-01|  5.0000e-01|   -6.755970|   -6.885436|   -7.395832|   -7.033595|   -7.038681|   -9.022226|    1.758890|
|         340|  6.2714e+00|  3.8695e-09|  7.6103e-01|  5.0000e-01|  5.0000e-01|  5.0000e-01|   -6.755604|   -6.885063|   -7.395833|   -7.033157|   -7.038352|   -9.022540|    1.758889|
|         341|  6.2708e+00|  3.8695e-09|  7.6103e-01|  5.0000e-01|  5.0000e-01|  5.0000e-01|   -6.755241|   -6.884692|   -7.395836|   -7.032722|   -7.038025|   -9.022856|    1.758888|
|         342|  6.2704e+00|  3.8694e-09|  7.6103e-01|  5.0000e-01|  5.0000e-01|  5.0000e-01|   -6.754881|   -6.884324|   -7.395842|   -7.032290|   -7.037700|   -9.023172|    1.758887|
|         343|  6.2698e+00|  3.8694e-09|  7.6103e-01|  5.0000e-01|  5.0000e-01|  5.0000e-01|   -6.754523|   -6.883957|   -7.395850|   -7.031860|   -7.037377|   -9.023489|    1.758886|
|         344|  6.2690e+00|  3.8693e-09|  7.6103e-01|  5.0000e-01|  5.0000e-01|  5.0000e-01|   -6.754168|   -6.883593|   -7.395860|   -7.031434|   -7.037055|   -9.023807|    1.758884|
|         345|  6.2684e+00|  3.8693e-09|  7.6103e-01|  5.0000e-01|  5.0000e-01|  5.0000e-01|   -6.753815|   -6.883230|   -7.395872|   -7.031011|   -7.036736|   -9.024125|    1.758883|
|         346|  6.2681e+00|  3.8692e-09|  7.6103e-01|  5.0000e-01|  5.0000e-01|  5.0000e-01|   -6.753465|   -6.882870|   -7.395886|   -7.030591|   -7.036419|   -9.024444|    1.758882|
|         347|  6.2675e+00|  3.8692e-09|  7.6103e-01|  5.0000e-01|  5.0000e-01|  5.0000e-01|   -6.753117|   -6.882512|   -7.395903|   -7.030174|   -7.036103|   -9.024764|    1.758881|
|         348|  6.2670e+00|  3.8692e-09|  7.6103e-01|  5.0000e-01|  5.0000e-01|  5.0000e-01|   -6.752772|   -6.882157|   -7.395922|   -7.029760|   -7.035790|   -9.025084|    1.758880|
|         349|  6.2666e+00|  3.8691e-09|  7.6103e-01|  5.0000e-01|  5.0000e-01|  5.0000e-01|   -6.752430|   -6.881803|   -7.395943|   -7.029349|   -7.035479|   -9.025405|    1.758879|
[...]
|       10512|  6.0413e+00|  3.4955e-09|  7.6103e-01|  5.0000e-01|  5.0000e-01|  5.0000e-01|   -7.232107|   -7.353358|   -7.874896|   -7.505868|   -7.498282|   -9.529468|    1.758057|
|       10513|  6.0414e+00|  3.4954e-09|  7.6103e-01|  5.0000e-01|  5.0000e-01|  5.0000e-01|   -7.232652|   -7.353922|   -7.874953|   -7.506421|   -7.498721|   -9.529552|    1.758056|
|       10514|  6.0414e+00|  3.4954e-09|  7.6103e-01|  5.0000e-01|  5.0000e-01|  5.0000e-01|   -7.233198|   -7.354487|   -7.875008|   -7.506977|   -7.499161|   -9.529636|    1.758054|
|       10515|  6.0414e+00|  3.4954e-09|  7.6103e-01|  5.0000e-01|  5.0000e-01|  5.0000e-01|   -7.233744|   -7.355054|   -7.875062|   -7.507533|   -7.499603|   -9.529719|    1.758053|
|       10516|  6.0414e+00|  3.4953e-09|  7.6103e-01|  5.0000e-01|  5.0000e-01|  5.0000e-01|   -7.234292|   -7.355622|   -7.875115|   -7.508091|   -7.500045|   -9.529802|    1.758052|
|       10517|  6.0414e+00|  3.4953e-09|  7.6103e-01|  5.0000e-01|  5.0000e-01|  5.0000e-01|   -7.234840|   -7.356192|   -7.875167|   -7.508650|   -7.500488|   -9.529885|    1.758051|
|       10518|  6.0414e+00|  3.4953e-09|  7.6103e-01|  5.0000e-01|  5.0000e-01|  5.0000e-01|   -7.235390|   -7.356764|   -7.875217|   -7.509211|   -7.500933|   -9.529968|    1.758050|
|       10519|  6.0414e+00|  3.4952e-09|  7.6103e-01|  5.0000e-01|  5.0000e-01|  5.0000e-01|   -7.235940|   -7.357336|   -7.875265|   -7.509773|   -7.501378|   -9.530050|    1.758049|
|       10520|  6.0415e+00|  3.4952e-09|  7.6103e-01|  5.0000e-01|  5.0000e-01|  5.0000e-01|   -7.236491|   -7.357910|   -7.875312|   -7.510336|   -7.501824|   -9.530132|    1.758047|
|       10521|  6.0415e+00|  3.4952e-09|  7.6103e-01|  5.0000e-01|  5.0000e-01|  5.0000e-01|   -7.237042|   -7.358486|   -7.875358|   -7.510900|   -7.502272|   -9.530213|    1.758046|
|       10522|  6.0416e+00|  3.4951e-09|  7.6103e-01|  5.0000e-01|  5.0000e-01|  5.0000e-01|   -7.237594|   -7.359062|   -7.875403|   -7.511465|   -7.502720|   -9.530294|    1.758045|
|       10523|  6.0416e+00|  3.4951e-09|  7.6103e-01|  5.0000e-01|  5.0000e-01|  5.0000e-01|   -7.238147|   -7.359640|   -7.875446|   -7.512032|   -7.503169|   -9.530375|    1.758044|
|       10524|  6.0417e+00|  3.4951e-09|  7.6103e-01|  5.0000e-01|  5.0000e-01|  5.0000e-01|   -7.238700|   -7.360219|   -7.875487|   -7.512599|   -7.503619|   -9.530456|    1.758043|
|       10525|  6.0417e+00|  3.4951e-09|  7.6103e-01|  5.0000e-01|  5.0000e-01|  5.0000e-01|   -7.239254|   -7.360799|   -7.875527|   -7.513167|   -7.504069|   -9.530536|    1.758042|
|       10526|  6.0417e+00|  3.4950e-09|  7.6103e-01|  5.0000e-01|  5.0000e-01|  5.0000e-01|   -7.239808|   -7.361380|   -7.875565|   -7.513737|   -7.504520|   -9.530616|    1.758040|
|       10527|  6.0417e+00|  3.4950e-09|  7.6103e-01|  5.0000e-01|  5.0000e-01|  5.0000e-01|   -7.240362|   -7.361962|   -7.875602|   -7.514307|   -7.504972|   -9.530695|    1.758039|
|       10528|  6.0417e+00|  3.4950e-09|  7.6103e-01|  5.0000e-01|  5.0000e-01|  5.0000e-01|   -7.240917|   -7.362545|   -7.875638|   -7.514877|   -7.505425|   -9.530774|    1.758038|
|       10529|  6.0417e+00|  3.4949e-09|  7.6103e-01|  5.0000e-01|  5.0000e-01|  5.0000e-01|   -7.241472|   -7.363129|   -7.875672|   -7.515449|   -7.505878|   -9.530853|    1.758037|
|       10530|  6.0417e+00|  3.4949e-09|  7.6103e-01|  5.0000e-01|  5.0000e-01|  5.0000e-01|   -7.242027|   -7.363714|   -7.875704|   -7.516021|   -7.506331|   -9.530932|    1.758036|
|       10531|  6.0417e+00|  3.4949e-09|  7.6103e-01|  5.0000e-01|  5.0000e-01|  5.0000e-01|   -7.242582|   -7.364299|   -7.875735|   -7.516594|   -7.506786|   -9.531010|    1.758035|
|       10532|  6.0418e+00|  3.4948e-09|  7.6103e-01|  5.0000e-01|  5.0000e-01|  5.0000e-01|   -7.243137|   -7.364885|   -7.875765|   -7.517168|   -7.507240|   -9.531088|    1.758033|
|       10533|  6.0418e+00|  3.4948e-09|  7.6103e-01|  5.0000e-01|  5.0000e-01|  5.0000e-01|   -7.243692|   -7.365472|   -7.875793|   -7.517742|   -7.507695|   -9.531165|    1.758032|
|       10534|  6.0418e+00|  3.4948e-09|  7.6103e-01|  5.0000e-01|  5.0000e-01|  5.0000e-01|   -7.244248|   -7.366060|   -7.875820|   -7.518316|   -7.508151|   -9.531242|    1.758031|
|       10535|  6.0418e+00|  3.4947e-09|  7.6103e-01|  5.0000e-01|  5.0000e-01|  5.0000e-01|   -7.244803|   -7.366648|   -7.875845|   -7.518891|   -7.508607|   -9.531319|    1.758030|
|       10536|  6.0418e+00|  3.4947e-09|  7.6103e-01|  5.0000e-01|  5.0000e-01|  5.0000e-01|   -7.245358|   -7.367237|   -7.875868|   -7.519466|   -7.509063|   -9.531395|    1.758029|
|       10537|  6.0418e+00|  3.4947e-09|  7.6103e-01|  5.0000e-01|  5.0000e-01|  5.0000e-01|   -7.245912|   -7.367826|   -7.875891|   -7.520041|   -7.509520|   -9.531471|    1.758028|
|       10538|  6.0418e+00|  3.4947e-09|  7.6103e-01|  5.0000e-01|  5.0000e-01|  5.0000e-01|   -7.246467|   -7.368416|   -7.875911|   -7.520617|   -7.509976|   -9.531547|    1.758027|
|       10539|  6.0418e+00|  3.4946e-09|  7.6103e-01|  5.0000e-01|  5.0000e-01|  5.0000e-01|   -7.247021|   -7.369006|   -7.875930|   -7.521193|   -7.510433|   -9.531622|    1.758025|
|       10540|  6.0418e+00|  3.4946e-09|  7.6103e-01|  5.0000e-01|  5.0000e-01|  5.0000e-01|   -7.247575|   -7.369597|   -7.875948|   -7.521769|   -7.510890|   -9.531697|    1.758024|
|       10541|  6.0418e+00|  3.4946e-09|  7.6103e-01|  5.0000e-01|  5.0000e-01|  5.0000e-01|   -7.248128|   -7.370187|   -7.875964|   -7.522345|   -7.511348|   -9.531772|    1.758023|
|       10542|  6.0418e+00|  3.4945e-09|  7.6103e-01|  5.0000e-01|  5.0000e-01|  5.0000e-01|   -7.248681|   -7.370778|   -7.875979|   -7.522921|   -7.511805|   -9.531846|    1.758022|
|       10543|  6.0418e+00|  3.4945e-09|  7.6103e-01|  5.0000e-01|  5.0000e-01|  5.0000e-01|   -7.249233|   -7.371369|   -7.875992|   -7.523497|   -7.512262|   -9.531920|    1.758021|
|       10544|  6.0418e+00|  3.4945e-09|  7.6103e-01|  5.0000e-01|  5.0000e-01|  5.0000e-01|   -7.249784|   -7.371961|   -7.876004|   -7.524073|   -7.512719|   -9.531994|    1.758020|
|       10545|  6.0418e+00|  3.4944e-09|  7.6103e-01|  5.0000e-01|  5.0000e-01|  5.0000e-01|   -7.250335|   -7.372552|   -7.876014|   -7.524648|   -7.513177|   -9.532067|    1.758019|
|       10546|  6.0418e+00|  3.4944e-09|  7.6103e-01|  5.0000e-01|  5.0000e-01|  5.0000e-01|   -7.250885|   -7.373143|   -7.876023|   -7.525224|   -7.513634|   -9.532140|    1.758017|
|       10547|  6.0418e+00|  3.4944e-09|  7.6103e-01|  5.0000e-01|  5.0000e-01|  5.0000e-01|   -7.251435|   -7.373734|   -7.876030|   -7.525799|   -7.514091|   -9.532212|    1.758016|
|       10548|  6.0418e+00|  3.4943e-09|  7.6103e-01|  5.0000e-01|  5.0000e-01|  5.0000e-01|   -7.251983|   -7.374325|   -7.876036|   -7.526373|   -7.514548|   -9.532284|    1.758015|
|       10549|  6.0418e+00|  3.4943e-09|  7.6103e-01|  5.0000e-01|  5.0000e-01|  5.0000e-01|   -7.252531|   -7.374916|   -7.876040|   -7.526948|   -7.515004|   -9.532356|    1.758014|
|       10550|  6.0418e+00|  3.4943e-09|  7.6103e-01|  5.0000e-01|  5.0000e-01|  5.0000e-01|   -7.253077|   -7.375507|   -7.876043|   -7.527522|   -7.515460|   -9.532427|    1.758013|
|       10551|  6.0418e+00|  3.4943e-09|  7.6103e-01|  5.0000e-01|  5.0000e-01|  5.0000e-01|   -7.253623|   -7.376097|   -7.876044|   -7.528095|   -7.515916|   -9.532498|    1.758012|
|       10552|  6.0419e+00|  3.4942e-09|  7.6103e-01|  5.0000e-01|  5.0000e-01|  5.0000e-01|   -7.254167|   -7.376687|   -7.876043|   -7.528667|   -7.516372|   -9.532568|    1.758011|
|       10553|  6.0419e+00|  3.4942e-09|  7.6103e-01|  5.0000e-01|  5.0000e-01|  5.0000e-01|   -7.254710|   -7.377276|   -7.876042|   -7.529239|   -7.516827|   -9.532638|    1.758010|
|       10554|  6.0419e+00|  3.4942e-09|  7.6103e-01|  5.0000e-01|  5.0000e-01|  5.0000e-01|   -7.255252|   -7.377865|   -7.876038|   -7.529810|   -7.517282|   -9.532708|    1.758009|
|       10555|  6.0419e+00|  3.4941e-09|  7.6103e-01|  5.0000e-01|  5.0000e-01|  5.0000e-01|   -7.255792|   -7.378453|   -7.876033|   -7.530381|   -7.517736|   -9.532778|    1.758007|
|       10556|  6.0419e+00|  3.4941e-09|  7.6103e-01|  5.0000e-01|  5.0000e-01|  5.0000e-01|   -7.256331|   -7.379041|   -7.876027|   -7.530950|   -7.518189|   -9.532846|    1.758006|
|       10557|  6.0419e+00|  3.4941e-09|  7.6103e-01|  5.0000e-01|  5.0000e-01|  5.0000e-01|   -7.256869|   -7.379628|   -7.876019|   -7.531519|   -7.518642|   -9.532915|    1.758005|
|       10558|  6.0419e+00|  3.4940e-09|  7.6103e-01|  5.0000e-01|  5.0000e-01|  5.0000e-01|   -7.257405|   -7.380214|   -7.876009|   -7.532086|   -7.519095|   -9.532983|    1.758004|
|       10559|  6.0420e+00|  3.4940e-09|  7.6103e-01|  5.0000e-01|  5.0000e-01|  5.0000e-01|   -7.257939|   -7.380799|   -7.875998|   -7.532652|   -7.519546|   -9.533051|    1.758003|
|       10560|  6.0420e+00|  3.4940e-09|  7.6103e-01|  5.0000e-01|  5.0000e-01|  5.0000e-01|   -7.258472|   -7.381384|   -7.875986|   -7.533217|   -7.519997|   -9.533118|    1.758002|
|       10561|  6.0420e+00|  3.4940e-09|  7.6103e-01|  5.0000e-01|  5.0000e-01|  5.0000e-01|   -7.259003|   -7.381967|   -7.875971|   -7.533781|   -7.520447|   -9.533185|    1.758001|
|       10562|  6.0420e+00|  3.4939e-09|  7.6103e-01|  5.0000e-01|  5.0000e-01|  5.0000e-01|   -7.259532|   -7.382549|   -7.875956|   -7.534344|   -7.520896|   -9.533252|    1.758000|
|       10563|  6.0420e+00|  3.4939e-09|  7.6103e-01|  5.0000e-01|  5.0000e-01|  5.0000e-01|   -7.260059|   -7.383131|   -7.875938|   -7.534905|   -7.521344|   -9.533318|    1.757999|
|       10564|  6.0420e+00|  3.4939e-09|  7.6103e-01|  5.0000e-01|  5.0000e-01|  5.0000e-01|   -7.260584|   -7.383711|   -7.875920|   -7.535464|   -7.521791|   -9.533383|    1.757998|
|       10565|  6.0420e+00|  3.4938e-09|  7.6103e-01|  5.0000e-01|  5.0000e-01|  5.0000e-01|   -7.261108|   -7.384290|   -7.875899|   -7.536022|   -7.522237|   -9.533448|    1.757997|
|       10566|  6.0420e+00|  3.4938e-09|  7.6103e-01|  5.0000e-01|  5.0000e-01|  5.0000e-01|   -7.261629|   -7.384867|   -7.875877|   -7.536579|   -7.522682|   -9.533513|    1.757995|
|       10567|  6.0420e+00|  3.4938e-09|  7.6103e-01|  5.0000e-01|  5.0000e-01|  5.0000e-01|   -7.262148|   -7.385443|   -7.875854|   -7.537133|   -7.523126|   -9.533578|    1.757994|
|       10568|  6.0420e+00|  3.4937e-09|  7.6103e-01|  5.0000e-01|  5.0000e-01|  5.0000e-01|   -7.262665|   -7.386018|   -7.875829|   -7.537686|   -7.523569|   -9.533642|    1.757993|
|       10569|  6.0421e+00|  3.4937e-09|  7.6103e-01|  5.0000e-01|  5.0000e-01|  5.0000e-01|   -7.263179|   -7.386591|   -7.875803|   -7.538237|   -7.524010|   -9.533705|    1.757992|
|       10570|  6.0421e+00|  3.4937e-09|  7.6103e-01|  5.0000e-01|  5.0000e-01|  5.0000e-01|   -7.263691|   -7.387163|   -7.875775|   -7.538787|   -7.524450|   -9.533768|    1.757991|
|       10571|  6.0421e+00|  3.4936e-09|  7.6103e-01|  5.0000e-01|  5.0000e-01|  5.0000e-01|   -7.264201|   -7.387732|   -7.875745|   -7.539334|   -7.524889|   -9.533831|    1.757990|
|       10572|  6.0421e+00|  3.4936e-09|  7.6103e-01|  5.0000e-01|  5.0000e-01|  5.0000e-01|   -7.264708|   -7.388301|   -7.875714|   -7.539879|   -7.525327|   -9.533893|    1.757989|
|       10573|  6.0421e+00|  3.4936e-09|  7.6103e-01|  5.0000e-01|  5.0000e-01|  5.0000e-01|   -7.265212|   -7.388867|   -7.875681|   -7.540422|   -7.525762|   -9.533955|    1.757988|
|       10574|  6.0421e+00|  3.4936e-09|  7.6103e-01|  5.0000e-01|  5.0000e-01|  5.0000e-01|   -7.265714|   -7.389431|   -7.875647|   -7.540963|   -7.526197|   -9.534016|    1.757987|
|       10575|  6.0421e+00|  3.4935e-09|  7.6103e-01|  5.0000e-01|  5.0000e-01|  5.0000e-01|   -7.266213|   -7.389994|   -7.875612|   -7.541501|   -7.526630|   -9.534077|    1.757986|
|       10576|  6.0421e+00|  3.4935e-09|  7.6103e-01|  5.0000e-01|  5.0000e-01|  5.0000e-01|   -7.266709|   -7.390554|   -7.875574|   -7.542038|   -7.527061|   -9.534138|    1.757985|
|       10577|  6.0421e+00|  3.4935e-09|  7.6103e-01|  5.0000e-01|  5.0000e-01|  5.0000e-01|   -7.267203|   -7.391112|   -7.875536|   -7.542571|   -7.527491|   -9.534198|    1.757984|
|       10578|  6.0421e+00|  3.4934e-09|  7.6103e-01|  5.0000e-01|  5.0000e-01|  5.0000e-01|   -7.267693|   -7.391668|   -7.875496|   -7.543102|   -7.527919|   -9.534257|    1.757983|
|       10579|  6.0422e+00|  3.4934e-09|  7.6103e-01|  5.0000e-01|  5.0000e-01|  5.0000e-01|   -7.268180|   -7.392222|   -7.875454|   -7.543631|   -7.528345|   -9.534316|    1.757982|
|       10580|  6.0422e+00|  3.4934e-09|  7.6103e-01|  5.0000e-01|  5.0000e-01|  5.0000e-01|   -7.268664|   -7.392774|   -7.875410|   -7.544157|   -7.528769|   -9.534374|    1.757981|
|       10581|  6.0422e+00|  3.4933e-09|  7.6103e-01|  5.0000e-01|  5.0000e-01|  5.0000e-01|   -7.269145|   -7.393323|   -7.875366|   -7.544680|   -7.529191|   -9.534432|    1.757980|
|       10582|  6.0422e+00|  3.4933e-09|  7.6103e-01|  5.0000e-01|  5.0000e-01|  5.0000e-01|   -7.269623|   -7.393869|   -7.875319|   -7.545200|   -7.529612|   -9.534490|    1.757979|
|       10583|  6.0422e+00|  3.4933e-09|  7.6103e-01|  5.0000e-01|  5.0000e-01|  5.0000e-01|   -7.270098|   -7.394413|   -7.875271|   -7.545718|   -7.530030|   -9.534547|    1.757978|
|       10584|  6.0422e+00|  3.4932e-09|  7.6103e-01|  5.0000e-01|  5.0000e-01|  5.0000e-01|   -7.270568|   -7.394954|   -7.875222|   -7.546232|   -7.530447|   -9.534603|    1.757977|
|       10585|  6.0422e+00|  3.4932e-09|  7.6103e-01|  5.0000e-01|  5.0000e-01|  5.0000e-01|   -7.271036|   -7.395493|   -7.875171|   -7.546743|   -7.530861|   -9.534659|    1.757976|
|       10586|  6.0422e+00|  3.4932e-09|  7.6103e-01|  5.0000e-01|  5.0000e-01|  5.0000e-01|   -7.271500|   -7.396029|   -7.875119|   -7.547251|   -7.531273|   -9.534715|    1.757975|
|       10587|  6.0422e+00|  3.4932e-09|  7.6103e-01|  5.0000e-01|  5.0000e-01|  5.0000e-01|   -7.271960|   -7.396561|   -7.875065|   -7.547756|   -7.531683|   -9.534770|    1.757974|
|       10588|  6.0422e+00|  3.4931e-09|  7.6103e-01|  5.0000e-01|  5.0000e-01|  5.0000e-01|   -7.272417|   -7.397091|   -7.875009|   -7.548258|   -7.532091|   -9.534824|    1.757973|
|       10589|  6.0422e+00|  3.4931e-09|  7.6103e-01|  5.0000e-01|  5.0000e-01|  5.0000e-01|   -7.272869|   -7.397618|   -7.874952|   -7.548756|   -7.532496|   -9.534878|    1.757972|
|       10590|  6.0422e+00|  3.4931e-09|  7.6103e-01|  5.0000e-01|  5.0000e-01|  5.0000e-01|   -7.273318|   -7.398142|   -7.874894|   -7.549251|   -7.532899|   -9.534931|    1.757971|
|       10591|  6.0422e+00|  3.4930e-09|  7.6103e-01|  5.0000e-01|  5.0000e-01|  5.0000e-01|   -7.273763|   -7.398662|   -7.874834|   -7.549742|   -7.533300|   -9.534984|    1.757970|
|       10592|  6.0422e+00|  3.4930e-09|  7.6103e-01|  5.0000e-01|  5.0000e-01|  5.0000e-01|   -7.274204|   -7.399180|   -7.874772|   -7.550229|   -7.533698|   -9.535037|    1.757969|
|       10593|  6.0422e+00|  3.4930e-09|  7.6103e-01|  5.0000e-01|  5.0000e-01|  5.0000e-01|   -7.274641|   -7.399693|   -7.874710|   -7.550713|   -7.534093|   -9.535088|    1.757968|
|       10594|  6.0422e+00|  3.4929e-09|  7.6103e-01|  5.0000e-01|  5.0000e-01|  5.0000e-01|   -7.275073|   -7.400204|   -7.874645|   -7.551193|   -7.534486|   -9.535139|    1.757967|
|       10595|  6.0422e+00|  3.4929e-09|  7.6103e-01|  5.0000e-01|  5.0000e-01|  5.0000e-01|   -7.275502|   -7.400711|   -7.874579|   -7.551669|   -7.534876|   -9.535190|    1.757966|
|       10596|  6.0422e+00|  3.4929e-09|  7.6103e-01|  5.0000e-01|  5.0000e-01|  5.0000e-01|   -7.275926|   -7.401214|   -7.874512|   -7.552141|   -7.535264|   -9.535240|    1.757965|
|       10597|  6.0422e+00|  3.4929e-09|  7.6103e-01|  5.0000e-01|  5.0000e-01|  5.0000e-01|   -7.276345|   -7.401714|   -7.874444|   -7.552609|   -7.535649|   -9.535290|    1.757964|
|       10598|  6.0423e+00|  3.4928e-09|  7.6103e-01|  5.0000e-01|  5.0000e-01|  5.0000e-01|   -7.276761|   -7.402210|   -7.874373|   -7.553073|   -7.536031|   -9.535338|    1.757963|
|       10599|  6.0423e+00|  3.4928e-09|  7.6103e-01|  5.0000e-01|  5.0000e-01|  5.0000e-01|   -7.277171|   -7.402702|   -7.874302|   -7.553533|   -7.536410|   -9.535387|    1.757962|
|       10600|  6.0424e+00|  3.4928e-09|  7.6103e-01|  5.0000e-01|  5.0000e-01|  5.0000e-01|   -7.277578|   -7.403191|   -7.874229|   -7.553989|   -7.536786|   -9.535435|    1.757961|
|       10601|  6.0424e+00|  3.4927e-09|  7.6103e-01|  5.0000e-01|  5.0000e-01|  5.0000e-01|   -7.277979|   -7.403675|   -7.874154|   -7.554440|   -7.537159|   -9.535482|    1.757960|
|       10602|  6.0424e+00|  3.4927e-09|  7.6103e-01|  5.0000e-01|  5.0000e-01|  5.0000e-01|   -7.278376|   -7.404155|   -7.874079|   -7.554887|   -7.537530|   -9.535528|    1.757959|
|       10603|  6.0425e+00|  3.4927e-09|  7.6103e-01|  5.0000e-01|  5.0000e-01|  5.0000e-01|   -7.278768|   -7.404631|   -7.874001|   -7.555329|   -7.537897|   -9.535574|    1.757958|
|       10604|  6.0425e+00|  3.4926e-09|  7.6103e-01|  5.0000e-01|  5.0000e-01|  5.0000e-01|   -7.279155|   -7.405103|   -7.873923|   -7.555767|   -7.538261|   -9.535620|    1.757957|
|       10605|  6.0426e+00|  3.4926e-09|  7.6103e-01|  5.0000e-01|  5.0000e-01|  5.0000e-01|   -7.279537|   -7.405571|   -7.873843|   -7.556200|   -7.538622|   -9.535664|    1.757956|
|       10606|  6.0426e+00|  3.4926e-09|  7.6103e-01|  5.0000e-01|  5.0000e-01|  5.0000e-01|   -7.279914|   -7.406034|   -7.873762|   -7.556628|   -7.538979|   -9.535708|    1.757955|
|       10607|  6.0426e+00|  3.4925e-09|  7.6103e-01|  5.0000e-01|  5.0000e-01|  5.0000e-01|   -7.280286|   -7.406493|   -7.873679|   -7.557052|   -7.539334|   -9.535752|    1.757954|
|       10608|  6.0426e+00|  3.4925e-09|  7.6103e-01|  5.0000e-01|  5.0000e-01|  5.0000e-01|   -7.280652|   -7.406947|   -7.873595|   -7.557470|   -7.539685|   -9.535795|    1.757953|

scontrol show job 1138414
JobId=1138414 JobName=m6_aoa32
   UserId=anthonyy(3152141) GroupId=anthonyy(3152141) MCS_label=N/A
   Priority=693232 Nice=0 Account=rrg-jphickey QOS=normal
   JobState=COMPLETING Reason=TimeLimit Dependency=(null)
   Requeue=0 Restarts=0 BatchFlag=1 Reboot=0 ExitCode=0:15
   RunTime=18:00:16 TimeLimit=18:00:00 TimeMin=N/A
   SubmitTime=2026-03-07T17:47:32 EligibleTime=2026-03-07T17:47:32
   AccrueTime=2026-03-07T17:47:32
   StartTime=2026-03-07T17:47:36 EndTime=2026-03-08T12:47:52 Deadline=N/A
   SuspendTime=None SecsPreSuspend=0 LastSchedEval=2026-03-07T17:47:36 Scheduler=Main
   Partition=compute AllocNode:Sid=tri-login01:136366
   ReqNodeList=(null) ExcNodeList=(null)
   NodeList=tri[0328-0329]
   BatchHost=tri0328
   NumNodes=2 NumCPUs=384 NumTasks=128 CPUs/Task=1 ReqB:S:C:T=0:0:*:*
   ReqTRES=cpu=128,mem=1534000M,node=2,billing=128
   AllocTRES=cpu=384,mem=1534000M,node=2,billing=384
   Socks/Node=* NtasksPerN:B:S:C=64:0:*:* CoreSpec=*
   MinCPUsNode=64 MinMemoryNode=0 MinTmpDiskNode=0
   Features=(null) DelayBoot=00:00:00
   OverSubscribe=NO Contiguous=0 Licenses=(null) Network=(null)
   Command=/scratch/anthonyy/reentry/orion/cases/m6_aoa32/run.sh
   WorkDir=/scratch/anthonyy/reentry/orion/cases/m6_aoa32
   Comment=/opt/slurm/bin/sbatch --export=NONE --get-user-env=L run.sh 
   StdErr=/scratch/anthonyy/reentry/orion/cases/m6_aoa32/orion_1138414.err
   StdIn=/dev/null
   StdOut=/scratch/anthonyy/reentry/orion/cases/m6_aoa32/orion_1138414.out
   TresPerTask=cpu=1
   

sacct -j 1138414
JobID           JobName    Account    Elapsed  MaxVMSize     MaxRSS  SystemCPU    UserCPU ExitCode 
------------ ---------- ---------- ---------- ---------- ---------- ---------- ---------- -------- 
1138414        m6_aoa32 rrg-jphic+   18:00:16                        00:00.128  00:00.589      0:0 
1138414.bat+      batch rrg-jphic+   18:00:17          0      9700K  00:00.128  00:00.589     0:15 
1138414.ext+     extern rrg-jphic+   18:00:16                         00:00:00   00:00:00      0:0 
1138414.0       SU2_CFD rrg-jphic+   18:00:10                         00:00:00   00:00:00      0:0 

