Nodes: tri[0972,1006]
Tasks: 128
NPN:   64

-------------------------------------------------------------------------
|    ___ _   _ ___                                                      |
|   / __| | | |_  )   Release 7.5.1 "Blackbird"                         |
|   \__ \ |_| |/ /                                                      |
|   |___/\___//___|   Suite (Computational Fluid Dynamics Code)         |
|                                                                       |
-------------------------------------------------------------------------
| SU2 Project Website: https://su2code.github.io                        |
|                                                                       |
| The SU2 Project is maintained by the SU2 Foundation                   |
| (http://su2foundation.org)                                            |
-------------------------------------------------------------------------
| Copyright 2012-2023, SU2 Contributors                                 |
|                                                                       |
| SU2 is free software; you can redistribute it and/or                  |
| modify it under the terms of the GNU Lesser General Public            |
| License as published by the Free Software Foundation; either          |
| version 2.1 of the License, or (at your option) any later version.    |
|                                                                       |
| SU2 is distributed in the hope that it will be useful,                |
| but WITHOUT ANY WARRANTY; without even the implied warranty of        |
| MERCHANTABILITY or FITNESS FOR A PARTICULAR PURPOSE. See the GNU      |
| Lesser General Public License for more details.                       |
|                                                                       |
| You should have received a copy of the GNU Lesser General Public      |
| License along with SU2. If not, see <http://www.gnu.org/licenses/>.   |
-------------------------------------------------------------------------

Parsing config file for zone 0

----------------- Physical Case Definition ( Zone 0 ) -------------------
Compressible RANS equations.
Turbulence model: Spalart-Allmaras-noft2
Hybrid RANS/LES: No Hybrid RANS/LES
Mach number: 6.
Angle of attack (AoA): 32 deg, and angle of sideslip (AoS): 0 deg.
Reynolds number: 6.86229e+08. Reference length 5.
Reading and writing binary SU2 native restart files.
Read flow solution from: restart_flow.dat.
Non-Dimensional simulation (V=1.0, Rho=1.0, T=1.0 at the farfield).
The reference area will be computed using y(2D) or z(3D) projection.
The semi-span will be computed using the max y(3D) value.
The reference length is 0.64607 m.
Reference origin for moment evaluation is (0.25, 0, 0).
Surface(s) where the force coefficients are evaluated: ORION_SURFACE.

Input mesh file name: fine.su2

--------------- Space Numerical Integration ( Zone 0 ) ------------------
Jameson-Schmidt-Turkel scheme (2nd order in space) for the flow inviscid terms.
JST viscous coefficients (2nd & 4th): 0.5, 0.02.
The method includes a grid stretching correction (p = 0.3).
Scalar upwind solver for the turbulence model.
First order integration in space.
Average of gradients with correction (viscous flow terms).
Average of gradients with correction (viscous turbulence terms).
Gradient for upwind reconstruction: Green-Gauss.
Gradient for viscous and source terms: Green-Gauss.

--------------- Time Numerical Integration  ( Zone 0 ) ------------------
Local time stepping (steady state simulation).
Euler implicit method for the flow equations.
FGMRES is used for solving the linear system.
Using a ILU(0) preconditioning.
Convergence criteria of the linear solver: 1e-06.
Max number of linear iterations: 100.
CFL adaptation. Factor down: 0.5, factor up: 1.1,
                lower limit: 0.05, upper limit: 0.5,
                acceptable linear residual: 0.001.
Courant-Friedrichs-Lewy number:     0.03
Euler implicit time integration for the turbulence model.

------------------ Convergence Criteria  ( Zone 0 ) ---------------------
Maximum number of solver subiterations: 999999.
Begin convergence monitoring at iteration 5.
Residual minimum value: 1e-8.
Cauchy series min. value: 1e-10.
Number of Cauchy elements: 100.
Begin windowed time average at iteration 0.

-------------------- Output Information ( Zone 0 ) ----------------------
File writing frequency: 
+------------------------------------+
|                     File| Frequency|
+------------------------------------+
|                  RESTART|       150|
|                 PARAVIEW|       150|
|         SURFACE_PARAVIEW|       150|
+------------------------------------+
Writing the convergence history file every 1 inner iterations.
Writing the screen convergence history every 1 inner iterations.
The tabular file format is CSV (.csv).
Convergence history file name: history.
Forces breakdown file name: forces_breakdown.dat.
Surface file name: surface_flow.
Volume file name: flow.
Restart file name: restart_flow.

------------- Config File Boundary Information ( Zone 0 ) ---------------
+-----------------------------------------------------------------------+
|                        Marker Type|                        Marker Name|
+-----------------------------------------------------------------------+
|                          Far-field|                           FARFIELD|
+-----------------------------------------------------------------------+
|                     Heat flux wall|                      ORION_SURFACE|
+-----------------------------------------------------------------------+

-------------------- Output Preprocessing ( Zone 0 ) --------------------

WARNING: SURFACE_PRESSURE_DROP can only be computed for at least 2 surfaces (outlet, inlet, ...)

Screen output fields: INNER_ITER, WALL_TIME, MIN_DELTA_TIME, MAX_DELTA_TIME, MIN_CFL, MAX_CFL, AVG_CFL, RMS_DENSITY, RMS_MOMENTUM-X, RMS_MOMENTUM-Y, RMS_MOMENTUM-Z, RMS_ENERGY, RMS_NU_TILDE, DRAG
History output group(s): ITER, RMS_RES
Convergence field(s): RMS_DENSITY
Warning: No (valid) fields chosen for time convergence monitoring. Time convergence monitoring inactive.
Volume output fields: MACH, PRESSURE, TEMPERATURE, DENSITY, HEAT_FLUX, Y_PLUS, COORDINATES, SOLUTION

------------------- Geometry Preprocessing ( Zone 0 ) -------------------
Three dimensional problem.
62211324 grid points before partitioning.
190879888 volume elements before partitioning.
2 surface markers.
4104 boundary elements in index 0 (Marker = FARFIELD).
1824836 boundary elements in index 1 (Marker = ORION_SURFACE).
Executing the partitioning functions.
Building the graph adjacency structure.
Calling ParMETIS... graph partitioning complete (4959327 edge cuts).
Distributing ParMETIS coloring.
Rebalancing vertices.
Rebalancing volume element connectivity.
Rebalancing markers and surface elements.
66952290 vertices including ghost points. 
197997438 interior elements including halo cells. 
103171259 tetrahedra.
94500655 prisms.
325524 pyramids.
Establishing MPI communication patterns.
Setting point connectivity.
Renumbering points (Reverse Cuthill McKee Ordering).
Recomputing point connectivity.
Setting element connectivity.
Checking the numerical grid orientation.
All volume elements are correctly orientend.
All surface elements are correctly orientend.
Identifying edges and vertices.
Setting the control volume structure.
Volume of the computational grid: 535693.
Searching for the closest normal neighbors to the surfaces.
Storing a mapping from global to local point index.
Compute the surface curvature.
Max K: 132.896. Mean K: 3.9104. Standard deviation K: 7.49569.
Checking for periodicity.
Computing mesh quality statistics for the dual control volumes.
+--------------------------------------------------------------+
|           Mesh Quality Metric|        Minimum|        Maximum|
+--------------------------------------------------------------+
|    Orthogonality Angle (deg.)|        53.0661|             90|
|     CV Face Area Aspect Ratio|        1.01143|        75298.5|
|           CV Sub-Volume Ratio|        1.00029|        45.0258|
+--------------------------------------------------------------+
Finding max control volume width.
Communicating number of neighbors.
Reference area = 11.531 m^2.
Semi-span length = 2.49999 m.
Wetted area = 57.9072 m^2.
Area projection in the x-plane = 19.6343 m^2, y-plane = 11.531 m^2, z-plane = 11.531 m^2.
Max. coordinate in the x-direction = 2.575 m, y-direction = 2.49999 m, z-direction = 2.49999 m.
Min. coordinate in the x-direction = -0.71 m, y-direction = -2.49999 m, z-direction = -2.5 m.
Computing wall distances.

-------------------- Solver Preprocessing ( Zone 0 ) --------------------
Viscous flow: Computing pressure using the ideal gas law
based on the free-stream temperature and a density computed
from the Reynolds number.
Force coefficients computed using free-stream values.

-- Models:
+------------------------------------------------------------------------------+
|          Viscosity Model|        Conductivity Model|              Fluid Model|
+------------------------------------------------------------------------------+
|               SUTHERLAND|          CONSTANT_PRANDTL|             STANDARD_AIR|
+------------------------------------------------------------------------------+
-- Fluid properties:
+------------------------------------------------------------------------------+
|                  Name|    Dim. value|    Ref. value|      Unit|Non-dim. value|
+------------------------------------------------------------------------------+
|        Ref. Viscosity|     1.716e-05|       2455.73|   N.s/m^2|   6.98773e-09|
|      Sutherland Temp.|        273.15|        288.15|         K|      0.947944|
|     Sutherland Const.|         110.4|        288.15|         K|      0.383134|
+------------------------------------------------------------------------------+
|        Prandtl (Lam.)|             -|             -|         -|          0.72|
|       Prandtl (Turb.)|             -|             -|         -|           0.9|
+------------------------------------------------------------------------------+
|          Gas Constant|       287.058|       14467.7|  N.m/kg.K|     0.0198413|
|      Spec. Heat Ratio|             -|             -|         -|           1.4|
+------------------------------------------------------------------------------+
-- Initial and free-stream conditions:
+------------------------------------------------------------------------------+
|                  Name|    Dim. value|    Ref. value|      Unit|Non-dim. value|
+------------------------------------------------------------------------------+
|       Static Pressure|       99485.6|   5.01407e+06|        Pa|     0.0198413|
|               Density|       1.20274|       1.20274|    kg/m^3|             1|
|           Temperature|        288.15|        288.15|         K|             1|
|          Total Energy|   2.29123e+06|   4.16887e+06|   m^2/s^2|      0.549603|
|            Velocity-X|       1731.53|       2041.78|       m/s|      0.848048|
|            Velocity-Y|             0|       2041.78|       m/s|             0|
|            Velocity-Z|       1081.98|       2041.78|       m/s|      0.529919|
|    Velocity Magnitude|       2041.78|       2041.78|       m/s|             1|
+------------------------------------------------------------------------------+
|             Viscosity|    1.7893e-05|       2455.73|   N.s/m^2|    7.2862e-09|
|          Conductivity|             -|   3.55289e+07|   W/m^2.K|             -|
|     Turb. Kin. Energy|       15633.3|   4.16887e+06|   m^2/s^2|       0.00375|
|     Spec. Dissipation|   1.05085e+08|       2041.78|       1/s|       51467.1|
+------------------------------------------------------------------------------+
|           Mach Number|             -|             -|         -|             6|
|       Reynolds Number|             -|             -|         -|   6.86229e+08|
+------------------------------------------------------------------------------+
Initialize Jacobian structure (Navier-Stokes). MG level: 0.
Initialize Jacobian structure (SA model).

------------------- Numerics Preprocessing ( Zone 0 ) -------------------

----------------- Integration Preprocessing ( Zone 0 ) ------------------

------------------- Iteration Preprocessing ( Zone 0 ) ------------------
Euler/Navier-Stokes/RANS fluid iteration.

------------------------------ Begin Solver -----------------------------

Simulation Run using the Single-zone Driver
WARNING: SU2 was not compiled for an AVX-capable architecture. Performance could be better,
         see https://su2code.github.io/docs_v7/Build-SU2-Linux-MacOS/#compiler-optimizations
+-------------------------------------------------------------------------------------------------------------------------------------------------------------------------------------+
|  Inner_Iter|   Time(sec)|      Min DT|      Max DT|     Min CFL|     Max CFL|     Avg CFL|    rms[Rho]|   rms[RhoU]|   rms[RhoV]|   rms[RhoW]|   rms[RhoE]|     rms[nu]|          CD|
+-------------------------------------------------------------------------------------------------------------------------------------------------------------------------------------+
|           0|  1.2522e+01|  2.0975e-10|  4.5662e-02|  5.0000e-02|  5.0000e-02|  5.0000e-02|   -7.226193|   -7.347271|   -7.874178|   -7.499889|   -7.493538|   -9.528778|    1.758071|
|           1|  9.4928e+00|  3.4958e-10|  7.6103e-02|  5.5000e-02|  5.5000e-02|  5.5000e-02|   -7.226258|   -7.347327|   -7.874237|   -7.499953|   -7.493615|   -9.528773|    1.758071|
|           2|  8.4383e+00|  3.8454e-10|  8.3713e-02|  6.0500e-02|  6.0500e-02|  6.0500e-02|   -7.226363|   -7.347418|   -7.874331|   -7.500058|   -7.493737|   -9.528780|    1.758071|
|           3|  7.8502e+00|  4.2299e-10|  9.2084e-02|  6.6550e-02|  6.6550e-02|  6.6550e-02|   -7.226477|   -7.347517|   -7.874432|   -7.500173|   -7.493870|   -9.528787|    1.758071|
|           4|  7.4742e+00|  4.6529e-10|  1.0129e-01|  7.3205e-02|  7.3205e-02|  7.3205e-02|   -7.226602|   -7.347627|   -7.874540|   -7.500298|   -7.494015|   -9.528795|    1.758071|
|           5|  7.1754e+00|  5.1182e-10|  1.1142e-01|  8.0526e-02|  8.0526e-02|  8.0526e-02|   -7.226738|   -7.347746|   -7.874656|   -7.500435|   -7.494173|   -9.528804|    1.758070|
|           6|  7.0052e+00|  5.6300e-10|  1.2256e-01|  8.8578e-02|  8.8578e-02|  8.8578e-02|   -7.226887|   -7.347878|   -7.874779|   -7.500584|   -7.494344|   -9.528814|    1.758070|
|           7|  6.8832e+00|  6.1930e-10|  1.3482e-01|  9.7436e-02|  9.7436e-02|  9.7436e-02|   -7.227049|   -7.348022|   -7.874911|   -7.500746|   -7.494529|   -9.528824|    1.758070|
|           8|  6.7638e+00|  6.8122e-10|  1.4830e-01|  1.0718e-01|  1.0718e-01|  1.0718e-01|   -7.227225|   -7.348179|   -7.875050|   -7.500922|   -7.494730|   -9.528836|    1.758070|
|           9|  6.6752e+00|  7.4935e-10|  1.6313e-01|  1.1790e-01|  1.1790e-01|  1.1790e-01|   -7.227416|   -7.348351|   -7.875196|   -7.501114|   -7.494947|   -9.528849|    1.758069|
|          10|  6.5935e+00|  8.2428e-10|  1.7945e-01|  1.2969e-01|  1.2969e-01|  1.2969e-01|   -7.227624|   -7.348540|   -7.875350|   -7.501323|   -7.495182|   -9.528862|    1.758069|
|          11|  6.5136e+00|  9.0670e-10|  1.9739e-01|  1.4266e-01|  1.4266e-01|  1.4266e-01|   -7.227850|   -7.348745|   -7.875510|   -7.501549|   -7.495434|   -9.528878|    1.758069|
|          12|  6.5031e+00|  9.9737e-10|  2.1713e-01|  1.5692e-01|  1.5692e-01|  1.5692e-01|   -7.228094|   -7.348970|   -7.875676|   -7.501794|   -7.495706|   -9.528894|    1.758069|
|          13|  6.4852e+00|  1.0971e-09|  2.3884e-01|  1.7261e-01|  1.7261e-01|  1.7261e-01|   -7.228358|   -7.349215|   -7.875848|   -7.502059|   -7.495998|   -9.528912|    1.758068|
|          14|  6.4724e+00|  1.2068e-09|  2.6273e-01|  1.8987e-01|  1.8987e-01|  1.8987e-01|   -7.228643|   -7.349482|   -7.876022|   -7.502346|   -7.496309|   -9.528932|    1.758068|
|          15|  6.4635e+00|  1.3275e-09|  2.8900e-01|  2.0886e-01|  2.0886e-01|  2.0886e-01|   -7.228951|   -7.349772|   -7.876199|   -7.502654|   -7.496642|   -9.528954|    1.758067|
|          16|  6.4502e+00|  1.4602e-09|  3.1790e-01|  2.2975e-01|  2.2975e-01|  2.2975e-01|   -7.229281|   -7.350087|   -7.876374|   -7.502986|   -7.496996|   -9.528978|    1.758067|
|          17|  6.4406e+00|  1.6063e-09|  3.4969e-01|  2.5272e-01|  2.5272e-01|  2.5272e-01|   -7.229636|   -7.350429|   -7.876547|   -7.503343|   -7.497371|   -9.529004|    1.758066|
|          18|  6.4345e+00|  1.7669e-09|  3.8466e-01|  2.7800e-01|  2.7800e-01|  2.7800e-01|   -7.230016|   -7.350798|   -7.876713|   -7.503724|   -7.497766|   -9.529032|    1.758066|
|          19|  6.4291e+00|  1.9436e-09|  4.2313e-01|  3.0580e-01|  3.0580e-01|  3.0580e-01|   -7.230421|   -7.351196|   -7.876868|   -7.504130|   -7.498180|   -9.529063|    1.758065|
|          20|  6.4342e+00|  2.1379e-09|  4.6544e-01|  3.3637e-01|  3.3637e-01|  3.3637e-01|   -7.230851|   -7.351625|   -7.877008|   -7.504562|   -7.498611|   -9.529096|    1.758064|
|          21|  6.4755e+00|  2.3517e-09|  5.1198e-01|  3.7001e-01|  3.7001e-01|  3.7001e-01|   -7.231306|   -7.352083|   -7.877127|   -7.505019|   -7.499057|   -9.529133|    1.758063|
|          22|  6.5072e+00|  2.5868e-09|  5.6318e-01|  4.0701e-01|  4.0701e-01|  4.0701e-01|   -7.231784|   -7.352572|   -7.877218|   -7.505499|   -7.499512|   -9.529173|    1.758063|
|          23|  6.5386e+00|  2.8455e-09|  6.1950e-01|  4.4772e-01|  4.4772e-01|  4.4772e-01|   -7.232285|   -7.353091|   -7.877275|   -7.506001|   -7.499972|   -9.529216|    1.758062|
|          24|  6.5639e+00|  3.1300e-09|  6.8145e-01|  4.9249e-01|  4.9249e-01|  4.9249e-01|   -7.232803|   -7.353637|   -7.877287|   -7.506521|   -7.500429|   -9.529263|    1.758061|
|          25|  6.5859e+00|  3.4430e-09|  7.4959e-01|  5.0000e-01|  5.0000e-01|  5.0000e-01|   -7.233335|   -7.354207|   -7.877246|   -7.507054|   -7.500874|   -9.529314|    1.758059|
|          26|  6.6024e+00|  3.4955e-09|  7.6103e-01|  5.0000e-01|  5.0000e-01|  5.0000e-01|   -7.233873|   -7.354795|   -7.877140|   -7.507595|   -7.501292|   -9.529392|    1.758058|
|          27|  6.6208e+00|  3.4955e-09|  7.6103e-01|  5.0000e-01|  5.0000e-01|  5.0000e-01|   -7.234408|   -7.355379|   -7.877033|   -7.508131|   -7.501697|   -9.529476|    1.758057|
|          28|  6.6376e+00|  3.4954e-09|  7.6103e-01|  5.0000e-01|  5.0000e-01|  5.0000e-01|   -7.234936|   -7.355954|   -7.876936|   -7.508663|   -7.502095|   -9.529560|    1.758056|
|          29|  6.6522e+00|  3.4954e-09|  7.6103e-01|  5.0000e-01|  5.0000e-01|  5.0000e-01|   -7.235459|   -7.356521|   -7.876850|   -7.509189|   -7.502484|   -9.529643|    1.758055|
|          30|  6.6636e+00|  3.4954e-09|  7.6103e-01|  5.0000e-01|  5.0000e-01|  5.0000e-01|   -7.235976|   -7.357080|   -7.876773|   -7.509710|   -7.502866|   -9.529726|    1.758053|
|          31|  6.6755e+00|  3.4953e-09|  7.6103e-01|  5.0000e-01|  5.0000e-01|  5.0000e-01|   -7.236487|   -7.357631|   -7.876705|   -7.510227|   -7.503240|   -9.529808|    1.758052|
|          32|  6.6863e+00|  3.4953e-09|  7.6103e-01|  5.0000e-01|  5.0000e-01|  5.0000e-01|   -7.236993|   -7.358175|   -7.876646|   -7.510739|   -7.503608|   -9.529891|    1.758051|
|          33|  6.7014e+00|  3.4953e-09|  7.6103e-01|  5.0000e-01|  5.0000e-01|  5.0000e-01|   -7.237495|   -7.358713|   -7.876593|   -7.511248|   -7.503969|   -9.529972|    1.758050|
|          34|  6.7127e+00|  3.4952e-09|  7.6103e-01|  5.0000e-01|  5.0000e-01|  5.0000e-01|   -7.237992|   -7.359244|   -7.876548|   -7.511753|   -7.504326|   -9.530054|    1.758049|
|          35|  6.7224e+00|  3.4952e-09|  7.6103e-01|  5.0000e-01|  5.0000e-01|  5.0000e-01|   -7.238484|   -7.359771|   -7.876509|   -7.512254|   -7.504677|   -9.530135|    1.758048|
|          36|  6.7315e+00|  3.4952e-09|  7.6103e-01|  5.0000e-01|  5.0000e-01|  5.0000e-01|   -7.238973|   -7.360293|   -7.876476|   -7.512754|   -7.505025|   -9.530216|    1.758046|
|          37|  6.7554e+00|  3.4951e-09|  7.6103e-01|  5.0000e-01|  5.0000e-01|  5.0000e-01|   -7.239459|   -7.360811|   -7.876448|   -7.513251|   -7.505369|   -9.530296|    1.758045|
|          38|  6.7844e+00|  3.4951e-09|  7.6103e-01|  5.0000e-01|  5.0000e-01|  5.0000e-01|   -7.239942|   -7.361326|   -7.876424|   -7.513746|   -7.505711|   -9.530377|    1.758044|
|          39|  6.8059e+00|  3.4951e-09|  7.6103e-01|  5.0000e-01|  5.0000e-01|  5.0000e-01|   -7.240422|   -7.361838|   -7.876405|   -7.514240|   -7.506051|   -9.530456|    1.758043|
|          40|  6.8154e+00|  3.4951e-09|  7.6103e-01|  5.0000e-01|  5.0000e-01|  5.0000e-01|   -7.240900|   -7.362348|   -7.876390|   -7.514733|   -7.506389|   -9.530536|    1.758042|
|          41|  6.8287e+00|  3.4950e-09|  7.6103e-01|  5.0000e-01|  5.0000e-01|  5.0000e-01|   -7.241377|   -7.362856|   -7.876378|   -7.515225|   -7.506727|   -9.530615|    1.758040|
|          42|  6.8383e+00|  3.4950e-09|  7.6103e-01|  5.0000e-01|  5.0000e-01|  5.0000e-01|   -7.241852|   -7.363364|   -7.876369|   -7.515718|   -7.507065|   -9.530693|    1.758039|
|          43|  6.8432e+00|  3.4950e-09|  7.6103e-01|  5.0000e-01|  5.0000e-01|  5.0000e-01|   -7.242327|   -7.363871|   -7.876363|   -7.516211|   -7.507403|   -9.530772|    1.758038|
|          44|  6.8498e+00|  3.4949e-09|  7.6103e-01|  5.0000e-01|  5.0000e-01|  5.0000e-01|   -7.242802|   -7.364378|   -7.876359|   -7.516705|   -7.507742|   -9.530850|    1.758037|
|          45|  6.8549e+00|  3.4949e-09|  7.6103e-01|  5.0000e-01|  5.0000e-01|  5.0000e-01|   -7.243276|   -7.364886|   -7.876357|   -7.517201|   -7.508083|   -9.530927|    1.758036|
|          46|  6.8573e+00|  3.4949e-09|  7.6103e-01|  5.0000e-01|  5.0000e-01|  5.0000e-01|   -7.243752|   -7.365394|   -7.876358|   -7.517697|   -7.508427|   -9.531005|    1.758035|
|          47|  6.8632e+00|  3.4948e-09|  7.6103e-01|  5.0000e-01|  5.0000e-01|  5.0000e-01|   -7.244228|   -7.365904|   -7.876359|   -7.518196|   -7.508772|   -9.531082|    1.758034|
|          48|  6.8651e+00|  3.4948e-09|  7.6103e-01|  5.0000e-01|  5.0000e-01|  5.0000e-01|   -7.244704|   -7.366416|   -7.876362|   -7.518696|   -7.509121|   -9.531158|    1.758032|
|          49|  6.8719e+00|  3.4948e-09|  7.6103e-01|  5.0000e-01|  5.0000e-01|  5.0000e-01|   -7.245183|   -7.366929|   -7.876366|   -7.519199|   -7.509473|   -9.531235|    1.758031|
|          50|  6.8765e+00|  3.4947e-09|  7.6103e-01|  5.0000e-01|  5.0000e-01|  5.0000e-01|   -7.245662|   -7.367445|   -7.876371|   -7.519704|   -7.509828|   -9.531310|    1.758030|
|          51|  6.8816e+00|  3.4947e-09|  7.6103e-01|  5.0000e-01|  5.0000e-01|  5.0000e-01|   -7.246144|   -7.367963|   -7.876376|   -7.520212|   -7.510187|   -9.531386|    1.758029|
|          52|  6.8875e+00|  3.4947e-09|  7.6103e-01|  5.0000e-01|  5.0000e-01|  5.0000e-01|   -7.246627|   -7.368484|   -7.876382|   -7.520722|   -7.510550|   -9.531461|    1.758028|
|          53|  6.8894e+00|  3.4947e-09|  7.6103e-01|  5.0000e-01|  5.0000e-01|  5.0000e-01|   -7.247113|   -7.369008|   -7.876388|   -7.521236|   -7.510916|   -9.531536|    1.758027|
|          54|  6.8937e+00|  3.4946e-09|  7.6103e-01|  5.0000e-01|  5.0000e-01|  5.0000e-01|   -7.247600|   -7.369534|   -7.876394|   -7.521752|   -7.511287|   -9.531611|    1.758026|
|          55|  6.8998e+00|  3.4946e-09|  7.6103e-01|  5.0000e-01|  5.0000e-01|  5.0000e-01|   -7.248090|   -7.370064|   -7.876400|   -7.522270|   -7.511662|   -9.531685|    1.758024|
|          56|  6.9055e+00|  3.4946e-09|  7.6103e-01|  5.0000e-01|  5.0000e-01|  5.0000e-01|   -7.248582|   -7.370596|   -7.876405|   -7.522792|   -7.512041|   -9.531759|    1.758023|
|          57|  6.9076e+00|  3.4945e-09|  7.6103e-01|  5.0000e-01|  5.0000e-01|  5.0000e-01|   -7.249076|   -7.371132|   -7.876411|   -7.523316|   -7.512425|   -9.531833|    1.758022|
|          58|  6.9100e+00|  3.4945e-09|  7.6103e-01|  5.0000e-01|  5.0000e-01|  5.0000e-01|   -7.249572|   -7.371670|   -7.876415|   -7.523844|   -7.512812|   -9.531906|    1.758021|
|          59|  6.9122e+00|  3.4945e-09|  7.6103e-01|  5.0000e-01|  5.0000e-01|  5.0000e-01|   -7.250071|   -7.372212|   -7.876420|   -7.524374|   -7.513204|   -9.531979|    1.758020|
|          60|  6.9148e+00|  3.4944e-09|  7.6103e-01|  5.0000e-01|  5.0000e-01|  5.0000e-01|   -7.250572|   -7.372756|   -7.876423|   -7.524906|   -7.513599|   -9.532052|    1.758019|
|          61|  6.9170e+00|  3.4944e-09|  7.6103e-01|  5.0000e-01|  5.0000e-01|  5.0000e-01|   -7.251075|   -7.373303|   -7.876426|   -7.525441|   -7.513998|   -9.532124|    1.758018|
|          62|  6.9180e+00|  3.4944e-09|  7.6103e-01|  5.0000e-01|  5.0000e-01|  5.0000e-01|   -7.251580|   -7.373853|   -7.876428|   -7.525979|   -7.514401|   -9.532196|    1.758016|
|          63|  6.9188e+00|  3.4944e-09|  7.6103e-01|  5.0000e-01|  5.0000e-01|  5.0000e-01|   -7.252087|   -7.374406|   -7.876429|   -7.526518|   -7.514808|   -9.532268|    1.758015|
|          64|  6.9222e+00|  3.4943e-09|  7.6103e-01|  5.0000e-01|  5.0000e-01|  5.0000e-01|   -7.252597|   -7.374961|   -7.876429|   -7.527060|   -7.515218|   -9.532339|    1.758014|
|          65|  6.9236e+00|  3.4943e-09|  7.6103e-01|  5.0000e-01|  5.0000e-01|  5.0000e-01|   -7.253108|   -7.375518|   -7.876427|   -7.527604|   -7.515631|   -9.532410|    1.758013|
|          66|  6.9249e+00|  3.4943e-09|  7.6103e-01|  5.0000e-01|  5.0000e-01|  5.0000e-01|   -7.253620|   -7.376078|   -7.876425|   -7.528150|   -7.516048|   -9.532481|    1.758012|
|          67|  6.9271e+00|  3.4942e-09|  7.6103e-01|  5.0000e-01|  5.0000e-01|  5.0000e-01|   -7.254135|   -7.376640|   -7.876421|   -7.528697|   -7.516467|   -9.532551|    1.758011|
|          68|  6.9273e+00|  3.4942e-09|  7.6103e-01|  5.0000e-01|  5.0000e-01|  5.0000e-01|   -7.254650|   -7.377203|   -7.876417|   -7.529246|   -7.516889|   -9.532621|    1.758010|
|          69|  6.9297e+00|  3.4942e-09|  7.6103e-01|  5.0000e-01|  5.0000e-01|  5.0000e-01|   -7.255168|   -7.377769|   -7.876411|   -7.529797|   -7.517314|   -9.532691|    1.758009|
|          70|  6.9329e+00|  3.4941e-09|  7.6103e-01|  5.0000e-01|  5.0000e-01|  5.0000e-01|   -7.255686|   -7.378336|   -7.876403|   -7.530349|   -7.517741|   -9.532760|    1.758008|
|          71|  6.9381e+00|  3.4941e-09|  7.6103e-01|  5.0000e-01|  5.0000e-01|  5.0000e-01|   -7.256205|   -7.378905|   -7.876394|   -7.530902|   -7.518170|   -9.532829|    1.758006|
|          72|  6.9396e+00|  3.4941e-09|  7.6103e-01|  5.0000e-01|  5.0000e-01|  5.0000e-01|   -7.256726|   -7.379475|   -7.876384|   -7.531456|   -7.518602|   -9.532897|    1.758005|
|          73|  6.9410e+00|  3.4940e-09|  7.6103e-01|  5.0000e-01|  5.0000e-01|  5.0000e-01|   -7.257247|   -7.380047|   -7.876373|   -7.532011|   -7.519035|   -9.532966|    1.758004|
|          74|  6.9419e+00|  3.4940e-09|  7.6103e-01|  5.0000e-01|  5.0000e-01|  5.0000e-01|   -7.257768|   -7.380619|   -7.876360|   -7.532566|   -7.519470|   -9.533033|    1.758003|
|          75|  6.9426e+00|  3.4940e-09|  7.6103e-01|  5.0000e-01|  5.0000e-01|  5.0000e-01|   -7.258291|   -7.381192|   -7.876345|   -7.533123|   -7.519906|   -9.533101|    1.758002|
|          76|  6.9452e+00|  3.4940e-09|  7.6103e-01|  5.0000e-01|  5.0000e-01|  5.0000e-01|   -7.258813|   -7.381766|   -7.876329|   -7.533679|   -7.520344|   -9.533168|    1.758001|
|          77|  6.9462e+00|  3.4939e-09|  7.6103e-01|  5.0000e-01|  5.0000e-01|  5.0000e-01|   -7.259335|   -7.382341|   -7.876311|   -7.534236|   -7.520783|   -9.533234|    1.758000|
|          78|  6.9459e+00|  3.4939e-09|  7.6103e-01|  5.0000e-01|  5.0000e-01|  5.0000e-01|   -7.259858|   -7.382916|   -7.876292|   -7.534792|   -7.521223|   -9.533300|    1.757999|
|          79|  6.9469e+00|  3.4939e-09|  7.6103e-01|  5.0000e-01|  5.0000e-01|  5.0000e-01|   -7.260380|   -7.383492|   -7.876272|   -7.535349|   -7.521663|   -9.533366|    1.757998|
|          80|  6.9479e+00|  3.4938e-09|  7.6103e-01|  5.0000e-01|  5.0000e-01|  5.0000e-01|   -7.260902|   -7.384067|   -7.876249|   -7.535905|   -7.522105|   -9.533431|    1.757997|
|          81|  6.9469e+00|  3.4938e-09|  7.6103e-01|  5.0000e-01|  5.0000e-01|  5.0000e-01|   -7.261424|   -7.384643|   -7.876226|   -7.536462|   -7.522547|   -9.533496|    1.757996|
|          82|  6.9469e+00|  3.4938e-09|  7.6103e-01|  5.0000e-01|  5.0000e-01|  5.0000e-01|   -7.261945|   -7.385219|   -7.876200|   -7.537017|   -7.522989|   -9.533560|    1.757995|
|          83|  6.9469e+00|  3.4937e-09|  7.6103e-01|  5.0000e-01|  5.0000e-01|  5.0000e-01|   -7.262464|   -7.385794|   -7.876173|   -7.537572|   -7.523432|   -9.533625|    1.757993|
|          84|  6.9499e+00|  3.4937e-09|  7.6103e-01|  5.0000e-01|  5.0000e-01|  5.0000e-01|   -7.262983|   -7.386369|   -7.876144|   -7.538126|   -7.523875|   -9.533688|    1.757992|
|          85|  6.9513e+00|  3.4937e-09|  7.6103e-01|  5.0000e-01|  5.0000e-01|  5.0000e-01|   -7.263501|   -7.386944|   -7.876114|   -7.538679|   -7.524317|   -9.533751|    1.757991|
|          86|  6.9515e+00|  3.4936e-09|  7.6103e-01|  5.0000e-01|  5.0000e-01|  5.0000e-01|   -7.264017|   -7.387518|   -7.876082|   -7.539231|   -7.524760|   -9.533814|    1.757990|
|          87|  6.9528e+00|  3.4936e-09|  7.6103e-01|  5.0000e-01|  5.0000e-01|  5.0000e-01|   -7.264532|   -7.388091|   -7.876049|   -7.539782|   -7.525202|   -9.533877|    1.757989|
|          88|  6.9581e+00|  3.4936e-09|  7.6103e-01|  5.0000e-01|  5.0000e-01|  5.0000e-01|   -7.265045|   -7.388663|   -7.876013|   -7.540331|   -7.525644|   -9.533939|    1.757988|
|          89|  6.9595e+00|  3.4936e-09|  7.6103e-01|  5.0000e-01|  5.0000e-01|  5.0000e-01|   -7.265556|   -7.389233|   -7.875976|   -7.540879|   -7.526084|   -9.534000|    1.757987|
|          90|  6.9623e+00|  3.4935e-09|  7.6103e-01|  5.0000e-01|  5.0000e-01|  5.0000e-01|   -7.266065|   -7.389803|   -7.875938|   -7.541425|   -7.526524|   -9.534061|    1.757986|
|          91|  6.9625e+00|  3.4935e-09|  7.6103e-01|  5.0000e-01|  5.0000e-01|  5.0000e-01|   -7.266572|   -7.390371|   -7.875897|   -7.541968|   -7.526963|   -9.534122|    1.757985|
|          92|  6.9633e+00|  3.4935e-09|  7.6103e-01|  5.0000e-01|  5.0000e-01|  5.0000e-01|   -7.267076|   -7.390938|   -7.875855|   -7.542510|   -7.527401|   -9.534182|    1.757984|
|          93|  6.9649e+00|  3.4934e-09|  7.6103e-01|  5.0000e-01|  5.0000e-01|  5.0000e-01|   -7.267577|   -7.391502|   -7.875812|   -7.543050|   -7.527838|   -9.534241|    1.757983|
|          94|  6.9652e+00|  3.4934e-09|  7.6103e-01|  5.0000e-01|  5.0000e-01|  5.0000e-01|   -7.268076|   -7.392065|   -7.875766|   -7.543587|   -7.528273|   -9.534300|    1.757982|
|          95|  6.9648e+00|  3.4934e-09|  7.6103e-01|  5.0000e-01|  5.0000e-01|  5.0000e-01|   -7.268572|   -7.392626|   -7.875719|   -7.544122|   -7.528707|   -9.534359|    1.757981|
|          96|  6.9645e+00|  3.4933e-09|  7.6103e-01|  5.0000e-01|  5.0000e-01|  5.0000e-01|   -7.269065|   -7.393185|   -7.875670|   -7.544654|   -7.529139|   -9.534417|    1.757980|
|          97|  6.9647e+00|  3.4933e-09|  7.6103e-01|  5.0000e-01|  5.0000e-01|  5.0000e-01|   -7.269555|   -7.393742|   -7.875620|   -7.545183|   -7.529569|   -9.534475|    1.757979|
|          98|  6.9655e+00|  3.4933e-09|  7.6103e-01|  5.0000e-01|  5.0000e-01|  5.0000e-01|   -7.270041|   -7.394296|   -7.875568|   -7.545709|   -7.529997|   -9.534532|    1.757978|
|          99|  6.9674e+00|  3.4933e-09|  7.6103e-01|  5.0000e-01|  5.0000e-01|  5.0000e-01|   -7.270524|   -7.394847|   -7.875514|   -7.546232|   -7.530423|   -9.534589|    1.757977|
|         100|  6.9690e+00|  3.4932e-09|  7.6103e-01|  5.0000e-01|  5.0000e-01|  5.0000e-01|   -7.271003|   -7.395396|   -7.875459|   -7.546752|   -7.530847|   -9.534645|    1.757976|
|         101|  6.9703e+00|  3.4932e-09|  7.6103e-01|  5.0000e-01|  5.0000e-01|  5.0000e-01|   -7.271478|   -7.395942|   -7.875402|   -7.547268|   -7.531268|   -9.534700|    1.757975|
|         102|  6.9704e+00|  3.4932e-09|  7.6103e-01|  5.0000e-01|  5.0000e-01|  5.0000e-01|   -7.271949|   -7.396485|   -7.875343|   -7.547781|   -7.531688|   -9.534756|    1.757974|
|         103|  6.9709e+00|  3.4931e-09|  7.6103e-01|  5.0000e-01|  5.0000e-01|  5.0000e-01|   -7.272416|   -7.397025|   -7.875283|   -7.548291|   -7.532104|   -9.534810|    1.757973|
|         104|  6.9718e+00|  3.4931e-09|  7.6103e-01|  5.0000e-01|  5.0000e-01|  5.0000e-01|   -7.272879|   -7.397561|   -7.875221|   -7.548796|   -7.532518|   -9.534864|    1.757972|
|         105|  6.9714e+00|  3.4931e-09|  7.6103e-01|  5.0000e-01|  5.0000e-01|  5.0000e-01|   -7.273338|   -7.398095|   -7.875157|   -7.549298|   -7.532930|   -9.534918|    1.757971|
|         106|  6.9725e+00|  3.4930e-09|  7.6103e-01|  5.0000e-01|  5.0000e-01|  5.0000e-01|   -7.273792|   -7.398625|   -7.875092|   -7.549796|   -7.533338|   -9.534971|    1.757970|
|         107|  6.9734e+00|  3.4930e-09|  7.6103e-01|  5.0000e-01|  5.0000e-01|  5.0000e-01|   -7.274242|   -7.399151|   -7.875025|   -7.550290|   -7.533744|   -9.535023|    1.757969|
|         108|  6.9733e+00|  3.4930e-09|  7.6103e-01|  5.0000e-01|  5.0000e-01|  5.0000e-01|   -7.274687|   -7.399674|   -7.874957|   -7.550779|   -7.534147|   -9.535075|    1.757968|
|         109|  6.9736e+00|  3.4929e-09|  7.6103e-01|  5.0000e-01|  5.0000e-01|  5.0000e-01|   -7.275128|   -7.400193|   -7.874887|   -7.551265|   -7.534546|   -9.535127|    1.757967|
|         110|  6.9740e+00|  3.4929e-09|  7.6103e-01|  5.0000e-01|  5.0000e-01|  5.0000e-01|   -7.275564|   -7.400708|   -7.874816|   -7.551746|   -7.534943|   -9.535178|    1.757966|
|         111|  6.9741e+00|  3.4929e-09|  7.6103e-01|  5.0000e-01|  5.0000e-01|  5.0000e-01|   -7.275995|   -7.401220|   -7.874743|   -7.552223|   -7.535337|   -9.535228|    1.757965|
|         112|  6.9751e+00|  3.4929e-09|  7.6103e-01|  5.0000e-01|  5.0000e-01|  5.0000e-01|   -7.276421|   -7.401727|   -7.874669|   -7.552695|   -7.535727|   -9.535278|    1.757964|
|         113|  6.9760e+00|  3.4928e-09|  7.6103e-01|  5.0000e-01|  5.0000e-01|  5.0000e-01|   -7.276842|   -7.402231|   -7.874593|   -7.553163|   -7.536114|   -9.535327|    1.757963|
|         114|  6.9764e+00|  3.4928e-09|  7.6103e-01|  5.0000e-01|  5.0000e-01|  5.0000e-01|   -7.277259|   -7.402730|   -7.874516|   -7.553626|   -7.536498|   -9.535375|    1.757962|
|         115|  6.9767e+00|  3.4928e-09|  7.6103e-01|  5.0000e-01|  5.0000e-01|  5.0000e-01|   -7.277670|   -7.403225|   -7.874437|   -7.554085|   -7.536878|   -9.535423|    1.757961|
|         116|  6.9767e+00|  3.4927e-09|  7.6103e-01|  5.0000e-01|  5.0000e-01|  5.0000e-01|   -7.278076|   -7.403715|   -7.874358|   -7.554539|   -7.537256|   -9.535471|    1.757960|
|         117|  6.9782e+00|  3.4927e-09|  7.6103e-01|  5.0000e-01|  5.0000e-01|  5.0000e-01|   -7.278477|   -7.404201|   -7.874276|   -7.554988|   -7.537629|   -9.535518|    1.757959|
|         118|  6.9795e+00|  3.4927e-09|  7.6103e-01|  5.0000e-01|  5.0000e-01|  5.0000e-01|   -7.278873|   -7.404683|   -7.874194|   -7.555432|   -7.537999|   -9.535564|    1.757958|
|         119|  6.9790e+00|  3.4926e-09|  7.6103e-01|  5.0000e-01|  5.0000e-01|  5.0000e-01|   -7.279263|   -7.405160|   -7.874110|   -7.555871|   -7.538366|   -9.535610|    1.757957|
|         120|  6.9802e+00|  3.4926e-09|  7.6103e-01|  5.0000e-01|  5.0000e-01|  5.0000e-01|   -7.279648|   -7.405633|   -7.874024|   -7.556306|   -7.538729|   -9.535655|    1.757956|
|         121|  6.9820e+00|  3.4926e-09|  7.6103e-01|  5.0000e-01|  5.0000e-01|  5.0000e-01|   -7.280027|   -7.406100|   -7.873938|   -7.556735|   -7.539089|   -9.535699|    1.757955|
|         122|  6.9864e+00|  3.4925e-09|  7.6103e-01|  5.0000e-01|  5.0000e-01|  5.0000e-01|   -7.280401|   -7.406563|   -7.873850|   -7.557159|   -7.539444|   -9.535743|    1.757954|
|         123|  6.9868e+00|  3.4925e-09|  7.6103e-01|  5.0000e-01|  5.0000e-01|  5.0000e-01|   -7.280770|   -7.407022|   -7.873761|   -7.557578|   -7.539797|   -9.535786|    1.757953|
|         124|  6.9868e+00|  3.4925e-09|  7.6103e-01|  5.0000e-01|  5.0000e-01|  5.0000e-01|   -7.281133|   -7.407475|   -7.873670|   -7.557992|   -7.540145|   -9.535829|    1.757952|
|         125|  6.9879e+00|  3.4925e-09|  7.6103e-01|  5.0000e-01|  5.0000e-01|  5.0000e-01|   -7.281490|   -7.407923|   -7.873578|   -7.558400|   -7.540490|   -9.535871|    1.757951|
|         126|  6.9891e+00|  3.4924e-09|  7.6103e-01|  5.0000e-01|  5.0000e-01|  5.0000e-01|   -7.281841|   -7.408366|   -7.873485|   -7.558803|   -7.540831|   -9.535912|    1.757950|
|         127|  6.9887e+00|  3.4924e-09|  7.6103e-01|  5.0000e-01|  5.0000e-01|  5.0000e-01|   -7.282187|   -7.408804|   -7.873391|   -7.559201|   -7.541168|   -9.535953|    1.757950|
|         128|  6.9890e+00|  3.4924e-09|  7.6103e-01|  5.0000e-01|  5.0000e-01|  5.0000e-01|   -7.282527|   -7.409237|   -7.873295|   -7.559593|   -7.541501|   -9.535993|    1.757949|
|         129|  6.9887e+00|  3.4923e-09|  7.6103e-01|  5.0000e-01|  5.0000e-01|  5.0000e-01|   -7.282861|   -7.409664|   -7.873198|   -7.559980|   -7.541830|   -9.536032|    1.757948|
|         130|  6.9901e+00|  3.4923e-09|  7.6103e-01|  5.0000e-01|  5.0000e-01|  5.0000e-01|   -7.283190|   -7.410086|   -7.873100|   -7.560361|   -7.542155|   -9.536071|    1.757947|
|         131|  6.9919e+00|  3.4923e-09|  7.6103e-01|  5.0000e-01|  5.0000e-01|  5.0000e-01|   -7.283512|   -7.410503|   -7.873001|   -7.560736|   -7.542477|   -9.536109|    1.757946|
|         132|  6.9915e+00|  3.4922e-09|  7.6103e-01|  5.0000e-01|  5.0000e-01|  5.0000e-01|   -7.283828|   -7.410914|   -7.872900|   -7.561106|   -7.542794|   -9.536146|    1.757945|
|         133|  6.9921e+00|  3.4922e-09|  7.6103e-01|  5.0000e-01|  5.0000e-01|  5.0000e-01|   -7.284139|   -7.411320|   -7.872799|   -7.561470|   -7.543107|   -9.536183|    1.757944|
|         134|  6.9916e+00|  3.4922e-09|  7.6103e-01|  5.0000e-01|  5.0000e-01|  5.0000e-01|   -7.284443|   -7.411719|   -7.872696|   -7.561828|   -7.543416|   -9.536218|    1.757943|
|         135|  6.9918e+00|  3.4922e-09|  7.6103e-01|  5.0000e-01|  5.0000e-01|  5.0000e-01|   -7.284741|   -7.412113|   -7.872592|   -7.562180|   -7.543721|   -9.536254|    1.757942|
|         136|  6.9921e+00|  3.4921e-09|  7.6103e-01|  5.0000e-01|  5.0000e-01|  5.0000e-01|   -7.285033|   -7.412502|   -7.872487|   -7.562526|   -7.544022|   -9.536288|    1.757941|
|         137|  6.9916e+00|  3.4921e-09|  7.6103e-01|  5.0000e-01|  5.0000e-01|  5.0000e-01|   -7.285318|   -7.412884|   -7.872381|   -7.562866|   -7.544319|   -9.536322|    1.757941|
|         138|  6.9918e+00|  3.4921e-09|  7.6103e-01|  5.0000e-01|  5.0000e-01|  5.0000e-01|   -7.285598|   -7.413261|   -7.872274|   -7.563200|   -7.544611|   -9.536355|    1.757940|
|         139|  6.9959e+00|  3.4920e-09|  7.6103e-01|  5.0000e-01|  5.0000e-01|  5.0000e-01|   -7.285871|   -7.413631|   -7.872166|   -7.563529|   -7.544900|   -9.536388|    1.757939|
|         140|  6.9965e+00|  3.4920e-09|  7.6103e-01|  5.0000e-01|  5.0000e-01|  5.0000e-01|   -7.286138|   -7.413996|   -7.872057|   -7.563851|   -7.545184|   -9.536419|    1.757938|
|         141|  6.9983e+00|  3.4920e-09|  7.6103e-01|  5.0000e-01|  5.0000e-01|  5.0000e-01|   -7.286398|   -7.414354|   -7.871947|   -7.564166|   -7.545463|   -9.536450|    1.757937|
|         142|  6.9979e+00|  3.4919e-09|  7.6103e-01|  5.0000e-01|  5.0000e-01|  5.0000e-01|   -7.286652|   -7.414707|   -7.871836|   -7.564476|   -7.545738|   -9.536481|    1.757936|
|         143|  6.9984e+00|  3.4919e-09|  7.6103e-01|  5.0000e-01|  5.0000e-01|  5.0000e-01|   -7.286899|   -7.415053|   -7.871723|   -7.564778|   -7.546009|   -9.536510|    1.757935|
|         144|  6.9998e+00|  3.4919e-09|  7.6103e-01|  5.0000e-01|  5.0000e-01|  5.0000e-01|   -7.287140|   -7.415393|   -7.871610|   -7.565075|   -7.546275|   -9.536539|    1.757934|
|         145|  7.0002e+00|  3.4918e-09|  7.6103e-01|  5.0000e-01|  5.0000e-01|  5.0000e-01|   -7.287374|   -7.415726|   -7.871496|   -7.565365|   -7.546537|   -9.536567|    1.757934|
|         146|  7.0004e+00|  3.4918e-09|  7.6103e-01|  5.0000e-01|  5.0000e-01|  5.0000e-01|   -7.287601|   -7.416053|   -7.871380|   -7.565648|   -7.546794|   -9.536594|    1.757933|
|         147|  7.0005e+00|  3.4918e-09|  7.6103e-01|  5.0000e-01|  5.0000e-01|  5.0000e-01|   -7.287822|   -7.416374|   -7.871264|   -7.565925|   -7.547046|   -9.536621|    1.757932|
|         148|  7.0009e+00|  3.4918e-09|  7.6103e-01|  5.0000e-01|  5.0000e-01|  5.0000e-01|   -7.288036|   -7.416688|   -7.871147|   -7.566195|   -7.547294|   -9.536647|    1.757931|
|         149|  7.0008e+00|  3.4917e-09|  7.6103e-01|  5.0000e-01|  5.0000e-01|  5.0000e-01|   -7.288243|   -7.416995|   -7.871028|   -7.566459|   -7.547537|   -9.536672|    1.757930|
|         150|  7.0011e+00|  3.4917e-09|  7.6103e-01|  5.0000e-01|  5.0000e-01|  5.0000e-01|   -7.288444|   -7.417296|   -7.870909|   -7.566715|   -7.547775|   -9.536696|    1.757929|
+-----------------------------------------------------------------------+
|        File Writing Summary       |              Filename             |
+-----------------------------------------------------------------------+
|SU2 binary restart                 |restart_flow.dat                   |
|Paraview                           |flow.vtu                           |
|Paraview surface                   |surface_flow.vtu                   |
+-----------------------------------------------------------------------+
+-------------------------------------------------------------------------------------------------------------------------------------------------------------------------------------+
|  Inner_Iter|   Time(sec)|      Min DT|      Max DT|     Min CFL|     Max CFL|     Avg CFL|    rms[Rho]|   rms[RhoU]|   rms[RhoV]|   rms[RhoW]|   rms[RhoE]|     rms[nu]|          CD|
+-------------------------------------------------------------------------------------------------------------------------------------------------------------------------------------+
|         151|  7.1562e+00|  3.4917e-09|  7.6103e-01|  5.0000e-01|  5.0000e-01|  5.0000e-01|   -7.288637|   -7.417590|   -7.870789|   -7.566965|   -7.548009|   -9.536719|    1.757929|
|         152|  7.1572e+00|  3.4916e-09|  7.6103e-01|  5.0000e-01|  5.0000e-01|  5.0000e-01|   -7.288823|   -7.417878|   -7.870668|   -7.567208|   -7.548238|   -9.536742|    1.757928|
|         153|  7.1616e+00|  3.4916e-09|  7.6103e-01|  5.0000e-01|  5.0000e-01|  5.0000e-01|   -7.289003|   -7.418159|   -7.870546|   -7.567444|   -7.548461|   -9.536764|    1.757927|
|         154|  7.1632e+00|  3.4916e-09|  7.6103e-01|  5.0000e-01|  5.0000e-01|  5.0000e-01|   -7.289176|   -7.418433|   -7.870423|   -7.567673|   -7.548681|   -9.536785|    1.757926|
|         155|  7.1637e+00|  3.4915e-09|  7.6103e-01|  5.0000e-01|  5.0000e-01|  5.0000e-01|   -7.289341|   -7.418700|   -7.870299|   -7.567895|   -7.548895|   -9.536805|    1.757925|
|         156|  7.1636e+00|  3.4915e-09|  7.6103e-01|  5.0000e-01|  5.0000e-01|  5.0000e-01|   -7.289500|   -7.418960|   -7.870175|   -7.568110|   -7.549104|   -9.536824|    1.757924|
|         157|  7.1624e+00|  3.4915e-09|  7.6103e-01|  5.0000e-01|  5.0000e-01|  5.0000e-01|   -7.289651|   -7.419213|   -7.870049|   -7.568317|   -7.549308|   -9.536843|    1.757924|
|         158|  7.1619e+00|  3.4915e-09|  7.6103e-01|  5.0000e-01|  5.0000e-01|  5.0000e-01|   -7.289796|   -7.419459|   -7.869923|   -7.568518|   -7.549508|   -9.536861|    1.757923|
|         159|  7.1613e+00|  3.4914e-09|  7.6103e-01|  5.0000e-01|  5.0000e-01|  5.0000e-01|   -7.289933|   -7.419698|   -7.869795|   -7.568711|   -7.549702|   -9.536878|    1.757922|
|         160|  7.1599e+00|  3.4914e-09|  7.6103e-01|  5.0000e-01|  5.0000e-01|  5.0000e-01|   -7.290062|   -7.419930|   -7.869667|   -7.568897|   -7.549891|   -9.536894|    1.757921|
|         161|  7.1589e+00|  3.4914e-09|  7.6103e-01|  5.0000e-01|  5.0000e-01|  5.0000e-01|   -7.290185|   -7.420155|   -7.869538|   -7.569075|   -7.550075|   -9.536910|    1.757921|
|         162|  7.1577e+00|  3.4913e-09|  7.6103e-01|  5.0000e-01|  5.0000e-01|  5.0000e-01|   -7.290300|   -7.420372|   -7.869409|   -7.569246|   -7.550253|   -9.536924|    1.757920|
|         163|  7.1564e+00|  3.4913e-09|  7.6103e-01|  5.0000e-01|  5.0000e-01|  5.0000e-01|   -7.290409|   -7.420583|   -7.869278|   -7.569410|   -7.550427|   -9.536938|    1.757919|
|         164|  7.1556e+00|  3.4913e-09|  7.6103e-01|  5.0000e-01|  5.0000e-01|  5.0000e-01|   -7.290509|   -7.420785|   -7.869147|   -7.569566|   -7.550595|   -9.536951|    1.757918|
|         165|  7.1548e+00|  3.4912e-09|  7.6103e-01|  5.0000e-01|  5.0000e-01|  5.0000e-01|   -7.290602|   -7.420981|   -7.869014|   -7.569715|   -7.550758|   -9.536963|    1.757917|
|         166|  7.1530e+00|  3.4912e-09|  7.6103e-01|  5.0000e-01|  5.0000e-01|  5.0000e-01|   -7.290688|   -7.421169|   -7.868881|   -7.569856|   -7.550916|   -9.536974|    1.757917|
|         167|  7.1514e+00|  3.4912e-09|  7.6103e-01|  5.0000e-01|  5.0000e-01|  5.0000e-01|   -7.290767|   -7.421349|   -7.868748|   -7.569989|   -7.551068|   -9.536984|    1.757916|
|         168|  7.1513e+00|  3.4911e-09|  7.6103e-01|  5.0000e-01|  5.0000e-01|  5.0000e-01|   -7.290837|   -7.421522|   -7.868613|   -7.570114|   -7.551215|   -9.536994|    1.757915|
|         169|  7.1510e+00|  3.4911e-09|  7.6103e-01|  5.0000e-01|  5.0000e-01|  5.0000e-01|   -7.290901|   -7.421687|   -7.868478|   -7.570232|   -7.551356|   -9.537002|    1.757914|
|         170|  7.1502e+00|  3.4911e-09|  7.6103e-01|  5.0000e-01|  5.0000e-01|  5.0000e-01|   -7.290957|   -7.421845|   -7.868342|   -7.570342|   -7.551492|   -9.537010|    1.757914|
|         171|  7.1502e+00|  3.4911e-09|  7.6103e-01|  5.0000e-01|  5.0000e-01|  5.0000e-01|   -7.291005|   -7.421994|   -7.868205|   -7.570444|   -7.551622|   -9.537017|    1.757913|
|         172|  7.1494e+00|  3.4910e-09|  7.6103e-01|  5.0000e-01|  5.0000e-01|  5.0000e-01|   -7.291045|   -7.422136|   -7.868067|   -7.570538|   -7.551747|   -9.537023|    1.757912|
|         173|  7.1485e+00|  3.4910e-09|  7.6103e-01|  5.0000e-01|  5.0000e-01|  5.0000e-01|   -7.291078|   -7.422271|   -7.867929|   -7.570625|   -7.551866|   -9.537028|    1.757911|
|         174|  7.1483e+00|  3.4910e-09|  7.6103e-01|  5.0000e-01|  5.0000e-01|  5.0000e-01|   -7.291104|   -7.422397|   -7.867790|   -7.570703|   -7.551979|   -9.537032|    1.757911|
|         175|  7.1470e+00|  3.4909e-09|  7.6103e-01|  5.0000e-01|  5.0000e-01|  5.0000e-01|   -7.291121|   -7.422515|   -7.867650|   -7.570774|   -7.552087|   -9.537035|    1.757910|
|         176|  7.1454e+00|  3.4909e-09|  7.6103e-01|  5.0000e-01|  5.0000e-01|  5.0000e-01|   -7.291131|   -7.422626|   -7.867509|   -7.570836|   -7.552189|   -9.537037|    1.757909|
|         177|  7.1435e+00|  3.4909e-09|  7.6103e-01|  5.0000e-01|  5.0000e-01|  5.0000e-01|   -7.291134|   -7.422728|   -7.867368|   -7.570890|   -7.552285|   -9.537039|    1.757909|
|         178|  7.1420e+00|  3.4908e-09|  7.6103e-01|  5.0000e-01|  5.0000e-01|  5.0000e-01|   -7.291128|   -7.422823|   -7.867226|   -7.570937|   -7.552375|   -9.537039|    1.757908|
|         179|  7.1406e+00|  3.4908e-09|  7.6103e-01|  5.0000e-01|  5.0000e-01|  5.0000e-01|   -7.291115|   -7.422910|   -7.867084|   -7.570975|   -7.552460|   -9.537039|    1.757907|
|         180|  7.1394e+00|  3.4908e-09|  7.6103e-01|  5.0000e-01|  5.0000e-01|  5.0000e-01|   -7.291095|   -7.422988|   -7.866941|   -7.571005|   -7.552539|   -9.537038|    1.757907|
|         181|  7.1382e+00|  3.4908e-09|  7.6103e-01|  5.0000e-01|  5.0000e-01|  5.0000e-01|   -7.291066|   -7.423058|   -7.866797|   -7.571027|   -7.552612|   -9.537036|    1.757906|
|         182|  7.1380e+00|  3.4907e-09|  7.6103e-01|  5.0000e-01|  5.0000e-01|  5.0000e-01|   -7.291030|   -7.423121|   -7.866652|   -7.571041|   -7.552679|   -9.537032|    1.757905|
|         183|  7.1371e+00|  3.4907e-09|  7.6103e-01|  5.0000e-01|  5.0000e-01|  5.0000e-01|   -7.290986|   -7.423175|   -7.866507|   -7.571047|   -7.552741|   -9.537028|    1.757904|
|         184|  7.1358e+00|  3.4907e-09|  7.6103e-01|  5.0000e-01|  5.0000e-01|  5.0000e-01|   -7.290934|   -7.423221|   -7.866361|   -7.571045|   -7.552796|   -9.537023|    1.757904|
|         185|  7.1341e+00|  3.4906e-09|  7.6103e-01|  5.0000e-01|  5.0000e-01|  5.0000e-01|   -7.290875|   -7.423259|   -7.866215|   -7.571034|   -7.552846|   -9.537017|    1.757903|
|         186|  7.1323e+00|  3.4906e-09|  7.6103e-01|  5.0000e-01|  5.0000e-01|  5.0000e-01|   -7.290808|   -7.423289|   -7.866068|   -7.571016|   -7.552890|   -9.537010|    1.757902|
|         187|  7.1307e+00|  3.4906e-09|  7.6103e-01|  5.0000e-01|  5.0000e-01|  5.0000e-01|   -7.290733|   -7.423310|   -7.865920|   -7.570989|   -7.552928|   -9.537002|    1.757902|
|         188|  7.1297e+00|  3.4905e-09|  7.6103e-01|  5.0000e-01|  5.0000e-01|  5.0000e-01|   -7.290650|   -7.423324|   -7.865772|   -7.570954|   -7.552960|   -9.536994|    1.757901|
|         189|  7.1287e+00|  3.4905e-09|  7.6103e-01|  5.0000e-01|  5.0000e-01|  5.0000e-01|   -7.290561|   -7.423329|   -7.865624|   -7.570912|   -7.552986|   -9.536984|    1.757900|
|         190|  7.1272e+00|  3.4905e-09|  7.6103e-01|  5.0000e-01|  5.0000e-01|  5.0000e-01|   -7.290464|   -7.423326|   -7.865475|   -7.570862|   -7.553007|   -9.536973|    1.757900|
|         191|  7.1261e+00|  3.4904e-09|  7.6103e-01|  5.0000e-01|  5.0000e-01|  5.0000e-01|   -7.290359|   -7.423316|   -7.865325|   -7.570804|   -7.553022|   -9.536961|    1.757899|
|         192|  7.1250e+00|  3.4904e-09|  7.6103e-01|  5.0000e-01|  5.0000e-01|  5.0000e-01|   -7.290246|   -7.423297|   -7.865175|   -7.570737|   -7.553031|   -9.536948|    1.757899|
|         193|  7.1250e+00|  3.4904e-09|  7.6103e-01|  5.0000e-01|  5.0000e-01|  5.0000e-01|   -7.290126|   -7.423270|   -7.865025|   -7.570663|   -7.553034|   -9.536935|    1.757898|
|         194|  7.1243e+00|  3.4904e-09|  7.6103e-01|  5.0000e-01|  5.0000e-01|  5.0000e-01|   -7.289998|   -7.423234|   -7.864874|   -7.570580|   -7.553031|   -9.536920|    1.757897|
|         195|  7.1240e+00|  3.4903e-09|  7.6103e-01|  5.0000e-01|  5.0000e-01|  5.0000e-01|   -7.289863|   -7.423191|   -7.864722|   -7.570489|   -7.553022|   -9.536904|    1.757897|
|         196|  7.1227e+00|  3.4903e-09|  7.6103e-01|  5.0000e-01|  5.0000e-01|  5.0000e-01|   -7.289720|   -7.423139|   -7.864570|   -7.570390|   -7.553007|   -9.536887|    1.757896|
|         197|  7.1223e+00|  3.4903e-09|  7.6103e-01|  5.0000e-01|  5.0000e-01|  5.0000e-01|   -7.289569|   -7.423079|   -7.864417|   -7.570282|   -7.552986|   -9.536869|    1.757895|
|         198|  7.1222e+00|  3.4902e-09|  7.6103e-01|  5.0000e-01|  5.0000e-01|  5.0000e-01|   -7.289411|   -7.423011|   -7.864264|   -7.570167|   -7.552959|   -9.536851|    1.757895|
|         199|  7.1213e+00|  3.4902e-09|  7.6103e-01|  5.0000e-01|  5.0000e-01|  5.0000e-01|   -7.289245|   -7.422935|   -7.864111|   -7.570044|   -7.552926|   -9.536831|    1.757894|
|         200|  7.1205e+00|  3.4902e-09|  7.6103e-01|  5.0000e-01|  5.0000e-01|  5.0000e-01|   -7.289072|   -7.422850|   -7.863957|   -7.569912|   -7.552887|   -9.536810|    1.757894|
|         201|  7.1201e+00|  3.4901e-09|  7.6103e-01|  5.0000e-01|  5.0000e-01|  5.0000e-01|   -7.288891|   -7.422758|   -7.863803|   -7.569772|   -7.552842|   -9.536788|    1.757893|
|         202|  7.1208e+00|  3.4901e-09|  7.6103e-01|  5.0000e-01|  5.0000e-01|  5.0000e-01|   -7.288703|   -7.422657|   -7.863648|   -7.569625|   -7.552791|   -9.536765|    1.757892|
|         203|  7.1214e+00|  3.4901e-09|  7.6103e-01|  5.0000e-01|  5.0000e-01|  5.0000e-01|   -7.288507|   -7.422548|   -7.863493|   -7.569469|   -7.552734|   -9.536741|    1.757892|
|         204|  7.1212e+00|  3.4901e-09|  7.6103e-01|  5.0000e-01|  5.0000e-01|  5.0000e-01|   -7.288304|   -7.422430|   -7.863338|   -7.569305|   -7.552671|   -9.536716|    1.757891|
|         205|  7.1203e+00|  3.4900e-09|  7.6103e-01|  5.0000e-01|  5.0000e-01|  5.0000e-01|   -7.288093|   -7.422305|   -7.863183|   -7.569134|   -7.552603|   -9.536690|    1.757891|
|         206|  7.1192e+00|  3.4900e-09|  7.6103e-01|  5.0000e-01|  5.0000e-01|  5.0000e-01|   -7.287875|   -7.422172|   -7.863027|   -7.568954|   -7.552528|   -9.536663|    1.757890|
|         207|  7.1186e+00|  3.4900e-09|  7.6103e-01|  5.0000e-01|  5.0000e-01|  5.0000e-01|   -7.287650|   -7.422030|   -7.862871|   -7.568766|   -7.552447|   -9.536635|    1.757890|
|         208|  7.1177e+00|  3.4899e-09|  7.6103e-01|  5.0000e-01|  5.0000e-01|  5.0000e-01|   -7.287418|   -7.421881|   -7.862714|   -7.568571|   -7.552361|   -9.536605|    1.757889|
|         209|  7.1162e+00|  3.4899e-09|  7.6103e-01|  5.0000e-01|  5.0000e-01|  5.0000e-01|   -7.287178|   -7.421723|   -7.862558|   -7.568368|   -7.552269|   -9.536575|    1.757888|
|         210|  7.1146e+00|  3.4899e-09|  7.6103e-01|  5.0000e-01|  5.0000e-01|  5.0000e-01|   -7.286931|   -7.421558|   -7.862401|   -7.568157|   -7.552171|   -9.536544|    1.757888|
|         211|  7.1136e+00|  3.4898e-09|  7.6103e-01|  5.0000e-01|  5.0000e-01|  5.0000e-01|   -7.286677|   -7.421384|   -7.862244|   -7.567938|   -7.552066|   -9.536511|    1.757887|
|         212|  7.1131e+00|  3.4898e-09|  7.6103e-01|  5.0000e-01|  5.0000e-01|  5.0000e-01|   -7.286416|   -7.421202|   -7.862087|   -7.567711|   -7.551956|   -9.536478|    1.757887|
|         213|  7.1120e+00|  3.4898e-09|  7.6103e-01|  5.0000e-01|  5.0000e-01|  5.0000e-01|   -7.286147|   -7.421012|   -7.861929|   -7.567476|   -7.551840|   -9.536443|    1.757886|
|         214|  7.1115e+00|  3.4898e-09|  7.6103e-01|  5.0000e-01|  5.0000e-01|  5.0000e-01|   -7.285871|   -7.420814|   -7.861772|   -7.567233|   -7.551717|   -9.536407|    1.757886|
|         215|  7.1100e+00|  3.4897e-09|  7.6103e-01|  5.0000e-01|  5.0000e-01|  5.0000e-01|   -7.285588|   -7.420608|   -7.861614|   -7.566983|   -7.551589|   -9.536370|    1.757885|
|         216|  7.1080e+00|  3.4897e-09|  7.6103e-01|  5.0000e-01|  5.0000e-01|  5.0000e-01|   -7.285299|   -7.420394|   -7.861456|   -7.566725|   -7.551455|   -9.536333|    1.757885|
|         217|  7.1069e+00|  3.4897e-09|  7.6103e-01|  5.0000e-01|  5.0000e-01|  5.0000e-01|   -7.285002|   -7.420172|   -7.861298|   -7.566459|   -7.551315|   -9.536294|    1.757884|
|         218|  7.1055e+00|  3.4896e-09|  7.6103e-01|  5.0000e-01|  5.0000e-01|  5.0000e-01|   -7.284698|   -7.419942|   -7.861140|   -7.566186|   -7.551169|   -9.536253|    1.757884|
|         219|  7.1041e+00|  3.4896e-09|  7.6103e-01|  5.0000e-01|  5.0000e-01|  5.0000e-01|   -7.284387|   -7.419704|   -7.860981|   -7.565905|   -7.551017|   -9.536212|    1.757883|
|         220|  7.1024e+00|  3.4896e-09|  7.6103e-01|  5.0000e-01|  5.0000e-01|  5.0000e-01|   -7.284069|   -7.419459|   -7.860823|   -7.565616|   -7.550859|   -9.536170|    1.757883|
|         221|  7.1013e+00|  3.4895e-09|  7.6103e-01|  5.0000e-01|  5.0000e-01|  5.0000e-01|   -7.283745|   -7.419205|   -7.860665|   -7.565320|   -7.550695|   -9.536126|    1.757882|
|         222|  7.1001e+00|  3.4895e-09|  7.6103e-01|  5.0000e-01|  5.0000e-01|  5.0000e-01|   -7.283414|   -7.418944|   -7.860506|   -7.565017|   -7.550526|   -9.536082|    1.757882|
|         223|  7.1000e+00|  3.4895e-09|  7.6103e-01|  5.0000e-01|  5.0000e-01|  5.0000e-01|   -7.283076|   -7.418675|   -7.860348|   -7.564706|   -7.550351|   -9.536036|    1.757881|
|         224|  7.0995e+00|  3.4894e-09|  7.6103e-01|  5.0000e-01|  5.0000e-01|  5.0000e-01|   -7.282731|   -7.418398|   -7.860190|   -7.564388|   -7.550169|   -9.535989|    1.757881|
|         225|  7.0981e+00|  3.4894e-09|  7.6103e-01|  5.0000e-01|  5.0000e-01|  5.0000e-01|   -7.282380|   -7.418114|   -7.860031|   -7.564062|   -7.549983|   -9.535941|    1.757880|
|         226|  7.0966e+00|  3.4894e-09|  7.6103e-01|  5.0000e-01|  5.0000e-01|  5.0000e-01|   -7.282022|   -7.417821|   -7.859873|   -7.563730|   -7.549790|   -9.535892|    1.757880|
|         227|  7.0954e+00|  3.4894e-09|  7.6103e-01|  5.0000e-01|  5.0000e-01|  5.0000e-01|   -7.281658|   -7.417522|   -7.859715|   -7.563390|   -7.549592|   -9.535842|    1.757879|
|         228|  7.0952e+00|  3.4893e-09|  7.6103e-01|  5.0000e-01|  5.0000e-01|  5.0000e-01|   -7.281288|   -7.417215|   -7.859557|   -7.563043|   -7.549388|   -9.535790|    1.757879|
|         229|  7.0945e+00|  3.4893e-09|  7.6103e-01|  5.0000e-01|  5.0000e-01|  5.0000e-01|   -7.280911|   -7.416901|   -7.859399|   -7.562690|   -7.549179|   -9.535738|    1.757878|
|         230|  7.0930e+00|  3.4893e-09|  7.6103e-01|  5.0000e-01|  5.0000e-01|  5.0000e-01|   -7.280528|   -7.416579|   -7.859242|   -7.562329|   -7.548964|   -9.535684|    1.757878|
|         231|  7.0917e+00|  3.4892e-09|  7.6103e-01|  5.0000e-01|  5.0000e-01|  5.0000e-01|   -7.280139|   -7.416250|   -7.859085|   -7.561962|   -7.548743|   -9.535630|    1.757878|
|         232|  7.0903e+00|  3.4892e-09|  7.6103e-01|  5.0000e-01|  5.0000e-01|  5.0000e-01|   -7.279744|   -7.415913|   -7.858927|   -7.561588|   -7.548517|   -9.535574|    1.757877|
|         233|  7.0898e+00|  3.4892e-09|  7.6103e-01|  5.0000e-01|  5.0000e-01|  5.0000e-01|   -7.279343|   -7.415570|   -7.858770|   -7.561207|   -7.548286|   -9.535516|    1.757877|
|         234|  7.0895e+00|  3.4891e-09|  7.6103e-01|  5.0000e-01|  5.0000e-01|  5.0000e-01|   -7.278935|   -7.415219|   -7.858613|   -7.560819|   -7.548049|   -9.535458|    1.757876|
|         235|  7.0884e+00|  3.4891e-09|  7.6103e-01|  5.0000e-01|  5.0000e-01|  5.0000e-01|   -7.278522|   -7.414861|   -7.858456|   -7.560425|   -7.547806|   -9.535399|    1.757876|
|         236|  7.0874e+00|  3.4891e-09|  7.6103e-01|  5.0000e-01|  5.0000e-01|  5.0000e-01|   -7.278103|   -7.414496|   -7.858300|   -7.560024|   -7.547559|   -9.535338|    1.757876|
|         237|  7.0862e+00|  3.4891e-09|  7.6103e-01|  5.0000e-01|  5.0000e-01|  5.0000e-01|   -7.277678|   -7.414124|   -7.858143|   -7.559617|   -7.547305|   -9.535277|    1.757875|
|         238|  7.0850e+00|  3.4890e-09|  7.6103e-01|  5.0000e-01|  5.0000e-01|  5.0000e-01|   -7.277247|   -7.413745|   -7.857987|   -7.559204|   -7.547047|   -9.535214|    1.757875|
|         239|  7.0842e+00|  3.4890e-09|  7.6103e-01|  5.0000e-01|  5.0000e-01|  5.0000e-01|   -7.276811|   -7.413360|   -7.857830|   -7.558784|   -7.546783|   -9.535150|    1.757874|
|         240|  7.0832e+00|  3.4890e-09|  7.6103e-01|  5.0000e-01|  5.0000e-01|  5.0000e-01|   -7.276369|   -7.412967|   -7.857675|   -7.558357|   -7.546514|   -9.535084|    1.757874|
|         241|  7.0832e+00|  3.4889e-09|  7.6103e-01|  5.0000e-01|  5.0000e-01|  5.0000e-01|   -7.275921|   -7.412568|   -7.857519|   -7.557925|   -7.546240|   -9.535018|    1.757874|
|         242|  7.0825e+00|  3.4889e-09|  7.6103e-01|  5.0000e-01|  5.0000e-01|  5.0000e-01|   -7.275468|   -7.412162|   -7.857363|   -7.557486|   -7.545960|   -9.534951|    1.757873|
|         243|  7.0811e+00|  3.4889e-09|  7.6103e-01|  5.0000e-01|  5.0000e-01|  5.0000e-01|   -7.275009|   -7.411749|   -7.857208|   -7.557041|   -7.545676|   -9.534882|    1.757873|
|         244|  7.0801e+00|  3.4888e-09|  7.6103e-01|  5.0000e-01|  5.0000e-01|  5.0000e-01|   -7.274545|   -7.411330|   -7.857054|   -7.556590|   -7.545386|   -9.534812|    1.757872|
|         245|  7.0790e+00|  3.4888e-09|  7.6103e-01|  5.0000e-01|  5.0000e-01|  5.0000e-01|   -7.274076|   -7.410905|   -7.856899|   -7.556133|   -7.545091|   -9.534741|    1.757872|
|         246|  7.0787e+00|  3.4888e-09|  7.6103e-01|  5.0000e-01|  5.0000e-01|  5.0000e-01|   -7.273601|   -7.410473|   -7.856745|   -7.555671|   -7.544791|   -9.534669|    1.757872|
|         247|  7.0776e+00|  3.4887e-09|  7.6103e-01|  5.0000e-01|  5.0000e-01|  5.0000e-01|   -7.273122|   -7.410035|   -7.856591|   -7.555202|   -7.544487|   -9.534596|    1.757871|
|         248|  7.0767e+00|  3.4887e-09|  7.6103e-01|  5.0000e-01|  5.0000e-01|  5.0000e-01|   -7.272637|   -7.409590|   -7.856438|   -7.554728|   -7.544177|   -9.534521|    1.757871|
|         249|  7.0756e+00|  3.4887e-09|  7.6103e-01|  5.0000e-01|  5.0000e-01|  5.0000e-01|   -7.272148|   -7.409139|   -7.856285|   -7.554248|   -7.543862|   -9.534446|    1.757871|
|         250|  7.0747e+00|  3.4887e-09|  7.6103e-01|  5.0000e-01|  5.0000e-01|  5.0000e-01|   -7.271653|   -7.408683|   -7.856133|   -7.553762|   -7.543543|   -9.534369|    1.757870|
|         251|  7.0741e+00|  3.4886e-09|  7.6103e-01|  5.0000e-01|  5.0000e-01|  5.0000e-01|   -7.271154|   -7.408220|   -7.855981|   -7.553271|   -7.543219|   -9.534291|    1.757870|
|         252|  7.0740e+00|  3.4886e-09|  7.6103e-01|  5.0000e-01|  5.0000e-01|  5.0000e-01|   -7.270650|   -7.407751|   -7.855829|   -7.552774|   -7.542890|   -9.534212|    1.757870|
|         253|  7.0732e+00|  3.4886e-09|  7.6103e-01|  5.0000e-01|  5.0000e-01|  5.0000e-01|   -7.270141|   -7.407276|   -7.855678|   -7.552273|   -7.542556|   -9.534131|    1.757869|
|         254|  7.0721e+00|  3.4885e-09|  7.6103e-01|  5.0000e-01|  5.0000e-01|  5.0000e-01|   -7.269627|   -7.406795|   -7.855527|   -7.551765|   -7.542217|   -9.534050|    1.757869|
|         255|  7.0713e+00|  3.4885e-09|  7.6103e-01|  5.0000e-01|  5.0000e-01|  5.0000e-01|   -7.269109|   -7.406309|   -7.855377|   -7.551253|   -7.541874|   -9.533967|    1.757869|
|         256|  7.0710e+00|  3.4885e-09|  7.6103e-01|  5.0000e-01|  5.0000e-01|  5.0000e-01|   -7.268587|   -7.405817|   -7.855228|   -7.550735|   -7.541527|   -9.533883|    1.757868|
|         257|  7.0710e+00|  3.4884e-09|  7.6103e-01|  5.0000e-01|  5.0000e-01|  5.0000e-01|   -7.268060|   -7.405319|   -7.855079|   -7.550212|   -7.541175|   -9.533798|    1.757868|
|         258|  7.0706e+00|  3.4884e-09|  7.6103e-01|  5.0000e-01|  5.0000e-01|  5.0000e-01|   -7.267529|   -7.404816|   -7.854930|   -7.549685|   -7.540818|   -9.533712|    1.757868|
|         259|  7.0704e+00|  3.4884e-09|  7.6103e-01|  5.0000e-01|  5.0000e-01|  5.0000e-01|   -7.266993|   -7.404308|   -7.854783|   -7.549152|   -7.540457|   -9.533625|    1.757868|
|         260|  7.0699e+00|  3.4884e-09|  7.6103e-01|  5.0000e-01|  5.0000e-01|  5.0000e-01|   -7.266454|   -7.403794|   -7.854635|   -7.548614|   -7.540092|   -9.533536|    1.757867|
|         261|  7.0697e+00|  3.4883e-09|  7.6103e-01|  5.0000e-01|  5.0000e-01|  5.0000e-01|   -7.265910|   -7.403274|   -7.854489|   -7.548072|   -7.539722|   -9.533446|    1.757867|
|         262|  7.0691e+00|  3.4883e-09|  7.6103e-01|  5.0000e-01|  5.0000e-01|  5.0000e-01|   -7.265362|   -7.402750|   -7.854342|   -7.547525|   -7.539347|   -9.533356|    1.757867|
|         263|  7.0684e+00|  3.4883e-09|  7.6103e-01|  5.0000e-01|  5.0000e-01|  5.0000e-01|   -7.264810|   -7.402220|   -7.854197|   -7.546974|   -7.538969|   -9.533263|    1.757867|
|         264|  7.0676e+00|  3.4882e-09|  7.6103e-01|  5.0000e-01|  5.0000e-01|  5.0000e-01|   -7.264255|   -7.401685|   -7.854052|   -7.546417|   -7.538586|   -9.533170|    1.757866|
|         265|  7.0675e+00|  3.4882e-09|  7.6103e-01|  5.0000e-01|  5.0000e-01|  5.0000e-01|   -7.263695|   -7.401145|   -7.853907|   -7.545857|   -7.538199|   -9.533076|    1.757866|
|         266|  7.0669e+00|  3.4882e-09|  7.6103e-01|  5.0000e-01|  5.0000e-01|  5.0000e-01|   -7.263132|   -7.400600|   -7.853764|   -7.545292|   -7.537808|   -9.532980|    1.757866|
|         267|  7.0657e+00|  3.4881e-09|  7.6103e-01|  5.0000e-01|  5.0000e-01|  5.0000e-01|   -7.262565|   -7.400051|   -7.853620|   -7.544722|   -7.537413|   -9.532884|    1.757866|
|         268|  7.0651e+00|  3.4881e-09|  7.6103e-01|  5.0000e-01|  5.0000e-01|  5.0000e-01|   -7.261995|   -7.399496|   -7.853478|   -7.544149|   -7.537014|   -9.532786|    1.757865|
|         269|  7.0638e+00|  3.4881e-09|  7.6103e-01|  5.0000e-01|  5.0000e-01|  5.0000e-01|   -7.261421|   -7.398937|   -7.853336|   -7.543571|   -7.536611|   -9.532687|    1.757865|
|         270|  7.0637e+00|  3.4881e-09|  7.6103e-01|  5.0000e-01|  5.0000e-01|  5.0000e-01|   -7.260843|   -7.398373|   -7.853195|   -7.542989|   -7.536204|   -9.532587|    1.757865|
|         271|  7.0639e+00|  3.4880e-09|  7.6103e-01|  5.0000e-01|  5.0000e-01|  5.0000e-01|   -7.260263|   -7.397805|   -7.853054|   -7.542404|   -7.535793|   -9.532485|    1.757865|
|         272|  7.0637e+00|  3.4880e-09|  7.6103e-01|  5.0000e-01|  5.0000e-01|  5.0000e-01|   -7.259679|   -7.397233|   -7.852914|   -7.541814|   -7.535378|   -9.532383|    1.757864|
|         273|  7.0645e+00|  3.4880e-09|  7.6103e-01|  5.0000e-01|  5.0000e-01|  5.0000e-01|   -7.259092|   -7.396656|   -7.852775|   -7.541221|   -7.534960|   -9.532279|    1.757864|
|         274|  7.0653e+00|  3.4879e-09|  7.6103e-01|  5.0000e-01|  5.0000e-01|  5.0000e-01|   -7.258502|   -7.396075|   -7.852637|   -7.540624|   -7.534538|   -9.532174|    1.757864|
|         275|  7.0656e+00|  3.4879e-09|  7.6103e-01|  5.0000e-01|  5.0000e-01|  5.0000e-01|   -7.257908|   -7.395489|   -7.852500|   -7.540023|   -7.534112|   -9.532068|    1.757864|
|         276|  7.0660e+00|  3.4879e-09|  7.6103e-01|  5.0000e-01|  5.0000e-01|  5.0000e-01|   -7.257312|   -7.394900|   -7.852363|   -7.539419|   -7.533683|   -9.531961|    1.757864|
|         277|  7.0648e+00|  3.4878e-09|  7.6103e-01|  5.0000e-01|  5.0000e-01|  5.0000e-01|   -7.256714|   -7.394307|   -7.852227|   -7.538812|   -7.533250|   -9.531853|    1.757863|
|         278|  7.0644e+00|  3.4878e-09|  7.6103e-01|  5.0000e-01|  5.0000e-01|  5.0000e-01|   -7.256112|   -7.393710|   -7.852092|   -7.538201|   -7.532814|   -9.531743|    1.757863|
|         279|  7.0637e+00|  3.4878e-09|  7.6103e-01|  5.0000e-01|  5.0000e-01|  5.0000e-01|   -7.255508|   -7.393108|   -7.851957|   -7.537587|   -7.532375|   -9.531633|    1.757863|
|         280|  7.0631e+00|  3.4877e-09|  7.6103e-01|  5.0000e-01|  5.0000e-01|  5.0000e-01|   -7.254901|   -7.392504|   -7.851824|   -7.536970|   -7.531932|   -9.531521|    1.757863|
|         281|  7.0620e+00|  3.4877e-09|  7.6103e-01|  5.0000e-01|  5.0000e-01|  5.0000e-01|   -7.254291|   -7.391895|   -7.851691|   -7.536349|   -7.531486|   -9.531408|    1.757863|
|         282|  7.0615e+00|  3.4877e-09|  7.6103e-01|  5.0000e-01|  5.0000e-01|  5.0000e-01|   -7.253679|   -7.391283|   -7.851559|   -7.535726|   -7.531037|   -9.531294|    1.757863|
|         283|  7.0611e+00|  3.4877e-09|  7.6103e-01|  5.0000e-01|  5.0000e-01|  5.0000e-01|   -7.253065|   -7.390668|   -7.851428|   -7.535099|   -7.530584|   -9.531179|    1.757863|
|         284|  7.0601e+00|  3.4876e-09|  7.6103e-01|  5.0000e-01|  5.0000e-01|  5.0000e-01|   -7.252448|   -7.390049|   -7.851297|   -7.534470|   -7.530129|   -9.531063|    1.757862|
|         285|  7.0594e+00|  3.4876e-09|  7.6103e-01|  5.0000e-01|  5.0000e-01|  5.0000e-01|   -7.251829|   -7.389427|   -7.851168|   -7.533838|   -7.529670|   -9.530945|    1.757862|
|         286|  7.0591e+00|  3.4876e-09|  7.6103e-01|  5.0000e-01|  5.0000e-01|  5.0000e-01|   -7.251208|   -7.388802|   -7.851039|   -7.533204|   -7.529209|   -9.530827|    1.757862|
|         287|  7.0579e+00|  3.4875e-09|  7.6103e-01|  5.0000e-01|  5.0000e-01|  5.0000e-01|   -7.250585|   -7.388173|   -7.850912|   -7.532566|   -7.528745|   -9.530707|    1.757862|
|         288|  7.0572e+00|  3.4875e-09|  7.6103e-01|  5.0000e-01|  5.0000e-01|  5.0000e-01|   -7.249960|   -7.387542|   -7.850785|   -7.531926|   -7.528277|   -9.530586|    1.757862|
|         289|  7.0568e+00|  3.4875e-09|  7.6103e-01|  5.0000e-01|  5.0000e-01|  5.0000e-01|   -7.249333|   -7.386907|   -7.850659|   -7.531284|   -7.527807|   -9.530464|    1.757862|
|         290|  7.0561e+00|  3.4874e-09|  7.6103e-01|  5.0000e-01|  5.0000e-01|  5.0000e-01|   -7.248704|   -7.386270|   -7.850534|   -7.530639|   -7.527335|   -9.530341|    1.757862|
|         291|  7.0561e+00|  3.4874e-09|  7.6103e-01|  5.0000e-01|  5.0000e-01|  5.0000e-01|   -7.248073|   -7.385629|   -7.850410|   -7.529992|   -7.526859|   -9.530217|    1.757862|
|         292|  7.0562e+00|  3.4874e-09|  7.6103e-01|  5.0000e-01|  5.0000e-01|  5.0000e-01|   -7.247440|   -7.384986|   -7.850287|   -7.529343|   -7.526381|   -9.530092|    1.757861|
|         293|  7.0559e+00|  3.4874e-09|  7.6103e-01|  5.0000e-01|  5.0000e-01|  5.0000e-01|   -7.246806|   -7.384341|   -7.850164|   -7.528692|   -7.525900|   -9.529965|    1.757861|
|         294|  7.0556e+00|  3.4873e-09|  7.6103e-01|  5.0000e-01|  5.0000e-01|  5.0000e-01|   -7.246170|   -7.383692|   -7.850043|   -7.528038|   -7.525417|   -9.529838|    1.757861|
|         295|  7.0547e+00|  3.4873e-09|  7.6103e-01|  5.0000e-01|  5.0000e-01|  5.0000e-01|   -7.245533|   -7.383042|   -7.849923|   -7.527382|   -7.524931|   -9.529709|    1.757861|
|         296|  7.0539e+00|  3.4873e-09|  7.6103e-01|  5.0000e-01|  5.0000e-01|  5.0000e-01|   -7.244894|   -7.382388|   -7.849804|   -7.526725|   -7.524443|   -9.529579|    1.757861|
|         297|  7.0536e+00|  3.4872e-09|  7.6103e-01|  5.0000e-01|  5.0000e-01|  5.0000e-01|   -7.244254|   -7.381733|   -7.849685|   -7.526065|   -7.523953|   -9.529448|    1.757861|
|         298|  7.0531e+00|  3.4872e-09|  7.6103e-01|  5.0000e-01|  5.0000e-01|  5.0000e-01|   -7.243612|   -7.381075|   -7.849568|   -7.525404|   -7.523460|   -9.529316|    1.757861|
|         299|  7.0525e+00|  3.4872e-09|  7.6103e-01|  5.0000e-01|  5.0000e-01|  5.0000e-01|   -7.242970|   -7.380414|   -7.849452|   -7.524741|   -7.522964|   -9.529183|    1.757861|
|         300|  7.0518e+00|  3.4871e-09|  7.6103e-01|  5.0000e-01|  5.0000e-01|  5.0000e-01|   -7.242326|   -7.379752|   -7.849337|   -7.524076|   -7.522467|   -9.529049|    1.757861|
+-----------------------------------------------------------------------+
|        File Writing Summary       |              Filename             |
+-----------------------------------------------------------------------+
|SU2 binary restart                 |restart_flow.dat                   |
|Paraview                           |flow.vtu                           |
|Paraview surface                   |surface_flow.vtu                   |
+-----------------------------------------------------------------------+
+-------------------------------------------------------------------------------------------------------------------------------------------------------------------------------------+
|  Inner_Iter|   Time(sec)|      Min DT|      Max DT|     Min CFL|     Max CFL|     Avg CFL|    rms[Rho]|   rms[RhoU]|   rms[RhoV]|   rms[RhoW]|   rms[RhoE]|     rms[nu]|          CD|
+-------------------------------------------------------------------------------------------------------------------------------------------------------------------------------------+
|         301|  7.1315e+00|  3.4871e-09|  7.6103e-01|  5.0000e-01|  5.0000e-01|  5.0000e-01|   -7.241681|   -7.379088|   -7.849222|   -7.523410|   -7.521968|   -9.528914|    1.757861|
|         302|  7.1318e+00|  3.4871e-09|  7.6103e-01|  5.0000e-01|  5.0000e-01|  5.0000e-01|   -7.241035|   -7.378422|   -7.849109|   -7.522742|   -7.521466|   -9.528778|    1.757861|
|         303|  7.1321e+00|  3.4871e-09|  7.6103e-01|  5.0000e-01|  5.0000e-01|  5.0000e-01|   -7.240388|   -7.377753|   -7.848997|   -7.522073|   -7.520963|   -9.528640|    1.757861|
|         304|  7.1316e+00|  3.4870e-09|  7.6103e-01|  5.0000e-01|  5.0000e-01|  5.0000e-01|   -7.239740|   -7.377084|   -7.848886|   -7.521403|   -7.520457|   -9.528502|    1.757861|
|         305|  7.1311e+00|  3.4870e-09|  7.6103e-01|  5.0000e-01|  5.0000e-01|  5.0000e-01|   -7.239092|   -7.376412|   -7.848776|   -7.520731|   -7.519950|   -9.528362|    1.757861|
|         306|  7.1316e+00|  3.4870e-09|  7.6103e-01|  5.0000e-01|  5.0000e-01|  5.0000e-01|   -7.238442|   -7.375739|   -7.848668|   -7.520058|   -7.519441|   -9.528222|    1.757861|
|         307|  7.1337e+00|  3.4869e-09|  7.6103e-01|  5.0000e-01|  5.0000e-01|  5.0000e-01|   -7.237792|   -7.375064|   -7.848560|   -7.519384|   -7.518930|   -9.528080|    1.757861|
|         308|  7.1345e+00|  3.4869e-09|  7.6103e-01|  5.0000e-01|  5.0000e-01|  5.0000e-01|   -7.237142|   -7.374387|   -7.848453|   -7.518709|   -7.518417|   -9.527937|    1.757861|
|         309|  7.1357e+00|  3.4869e-09|  7.6103e-01|  5.0000e-01|  5.0000e-01|  5.0000e-01|   -7.236490|   -7.373710|   -7.848347|   -7.518033|   -7.517902|   -9.527794|    1.757861|
|         310|  7.1358e+00|  3.4868e-09|  7.6103e-01|  5.0000e-01|  5.0000e-01|  5.0000e-01|   -7.235839|   -7.373031|   -7.848243|   -7.517356|   -7.517386|   -9.527649|    1.757861|
|         311|  7.1357e+00|  3.4868e-09|  7.6103e-01|  5.0000e-01|  5.0000e-01|  5.0000e-01|   -7.235187|   -7.372350|   -7.848139|   -7.516678|   -7.516869|   -9.527503|    1.757861|
|         312|  7.1362e+00|  3.4868e-09|  7.6103e-01|  5.0000e-01|  5.0000e-01|  5.0000e-01|   -7.234534|   -7.371669|   -7.848037|   -7.516000|   -7.516349|   -9.527356|    1.757861|
|         313|  7.1355e+00|  3.4868e-09|  7.6103e-01|  5.0000e-01|  5.0000e-01|  5.0000e-01|   -7.233881|   -7.370986|   -7.847936|   -7.515320|   -7.515829|   -9.527208|    1.757861|
|         314|  7.1347e+00|  3.4867e-09|  7.6103e-01|  5.0000e-01|  5.0000e-01|  5.0000e-01|   -7.233228|   -7.370302|   -7.847836|   -7.514641|   -7.515307|   -9.527059|    1.757861|
|         315|  7.1343e+00|  3.4867e-09|  7.6103e-01|  5.0000e-01|  5.0000e-01|  5.0000e-01|   -7.232575|   -7.369617|   -7.847737|   -7.513960|   -7.514783|   -9.526909|    1.757861|
|         316|  7.1340e+00|  3.4867e-09|  7.6103e-01|  5.0000e-01|  5.0000e-01|  5.0000e-01|   -7.231922|   -7.368932|   -7.847639|   -7.513279|   -7.514259|   -9.526758|    1.757861|
|         317|  7.1338e+00|  3.4866e-09|  7.6103e-01|  5.0000e-01|  5.0000e-01|  5.0000e-01|   -7.231269|   -7.368245|   -7.847542|   -7.512598|   -7.513733|   -9.526606|    1.757861|
|         318|  7.1333e+00|  3.4866e-09|  7.6103e-01|  5.0000e-01|  5.0000e-01|  5.0000e-01|   -7.230616|   -7.367558|   -7.847447|   -7.511916|   -7.513206|   -9.526454|    1.757861|
|         319|  7.1325e+00|  3.4866e-09|  7.6103e-01|  5.0000e-01|  5.0000e-01|  5.0000e-01|   -7.229963|   -7.366870|   -7.847353|   -7.511235|   -7.512678|   -9.526300|    1.757861|
|         320|  7.1320e+00|  3.4865e-09|  7.6103e-01|  5.0000e-01|  5.0000e-01|  5.0000e-01|   -7.229310|   -7.366182|   -7.847260|   -7.510553|   -7.512149|   -9.526145|    1.757861|
|         321|  7.1318e+00|  3.4865e-09|  7.6103e-01|  5.0000e-01|  5.0000e-01|  5.0000e-01|   -7.228658|   -7.365493|   -7.847169|   -7.509870|   -7.511619|   -9.525989|    1.757861|
|         322|  7.1317e+00|  3.4865e-09|  7.6103e-01|  5.0000e-01|  5.0000e-01|  5.0000e-01|   -7.228005|   -7.364804|   -7.847078|   -7.509188|   -7.511088|   -9.525832|    1.757861|
|         323|  7.1311e+00|  3.4864e-09|  7.6103e-01|  5.0000e-01|  5.0000e-01|  5.0000e-01|   -7.227353|   -7.364114|   -7.846989|   -7.508506|   -7.510556|   -9.525674|    1.757861|
|         324|  7.1308e+00|  3.4864e-09|  7.6103e-01|  5.0000e-01|  5.0000e-01|  5.0000e-01|   -7.226702|   -7.363424|   -7.846901|   -7.507824|   -7.510023|   -9.525515|    1.757861|
|         325|  7.1300e+00|  3.4864e-09|  7.6103e-01|  5.0000e-01|  5.0000e-01|  5.0000e-01|   -7.226051|   -7.362734|   -7.846815|   -7.507142|   -7.509490|   -9.525355|    1.757861|
|         326|  7.1307e+00|  3.4864e-09|  7.6103e-01|  5.0000e-01|  5.0000e-01|  5.0000e-01|   -7.225401|   -7.362043|   -7.846729|   -7.506461|   -7.508956|   -9.525194|    1.757861|
|         327|  7.1307e+00|  3.4863e-09|  7.6103e-01|  5.0000e-01|  5.0000e-01|  5.0000e-01|   -7.224751|   -7.361353|   -7.846646|   -7.505779|   -7.508421|   -9.525033|    1.757862|
|         328|  7.1304e+00|  3.4863e-09|  7.6103e-01|  5.0000e-01|  5.0000e-01|  5.0000e-01|   -7.224102|   -7.360662|   -7.846563|   -7.505098|   -7.507886|   -9.524870|    1.757862|
|         329|  7.1298e+00|  3.4863e-09|  7.6103e-01|  5.0000e-01|  5.0000e-01|  5.0000e-01|   -7.223454|   -7.359972|   -7.846481|   -7.504418|   -7.507350|   -9.524706|    1.757862|
|         330|  7.1291e+00|  3.4862e-09|  7.6103e-01|  5.0000e-01|  5.0000e-01|  5.0000e-01|   -7.222806|   -7.359281|   -7.846401|   -7.503737|   -7.506814|   -9.524542|    1.757862|
|         331|  7.1289e+00|  3.4862e-09|  7.6103e-01|  5.0000e-01|  5.0000e-01|  5.0000e-01|   -7.222159|   -7.358591|   -7.846322|   -7.503058|   -7.506277|   -9.524376|    1.757862|
|         332|  7.1288e+00|  3.4862e-09|  7.6103e-01|  5.0000e-01|  5.0000e-01|  5.0000e-01|   -7.221513|   -7.357901|   -7.846244|   -7.502379|   -7.505740|   -9.524210|    1.757862|
|         333|  7.1285e+00|  3.4861e-09|  7.6103e-01|  5.0000e-01|  5.0000e-01|  5.0000e-01|   -7.220868|   -7.357211|   -7.846168|   -7.501700|   -7.505202|   -9.524042|    1.757862|
|         334|  7.1276e+00|  3.4861e-09|  7.6103e-01|  5.0000e-01|  5.0000e-01|  5.0000e-01|   -7.220224|   -7.356522|   -7.846092|   -7.501022|   -7.504664|   -9.523874|    1.757862|
|         335|  7.1271e+00|  3.4861e-09|  7.6103e-01|  5.0000e-01|  5.0000e-01|  5.0000e-01|   -7.219581|   -7.355832|   -7.846018|   -7.500345|   -7.504126|   -9.523705|    1.757863|
|         336|  7.1267e+00|  3.4861e-09|  7.6103e-01|  5.0000e-01|  5.0000e-01|  5.0000e-01|   -7.218939|   -7.355144|   -7.845945|   -7.499669|   -7.503588|   -9.523535|    1.757863|
|         337|  7.1258e+00|  3.4860e-09|  7.6103e-01|  5.0000e-01|  5.0000e-01|  5.0000e-01|   -7.218298|   -7.354455|   -7.845874|   -7.498993|   -7.503049|   -9.523364|    1.757863|
|         338|  7.1253e+00|  3.4860e-09|  7.6103e-01|  5.0000e-01|  5.0000e-01|  5.0000e-01|   -7.217659|   -7.353768|   -7.845804|   -7.498319|   -7.502510|   -9.523192|    1.757863|
|         339|  7.1246e+00|  3.4860e-09|  7.6103e-01|  5.0000e-01|  5.0000e-01|  5.0000e-01|   -7.217020|   -7.353081|   -7.845735|   -7.497645|   -7.501971|   -9.523020|    1.757863|
|         340|  7.1240e+00|  3.4859e-09|  7.6103e-01|  5.0000e-01|  5.0000e-01|  5.0000e-01|   -7.216383|   -7.352394|   -7.845667|   -7.496972|   -7.501432|   -9.522846|    1.757863|
|         341|  7.1237e+00|  3.4859e-09|  7.6103e-01|  5.0000e-01|  5.0000e-01|  5.0000e-01|   -7.215747|   -7.351709|   -7.845601|   -7.496301|   -7.500894|   -9.522672|    1.757864|
|         342|  7.1229e+00|  3.4859e-09|  7.6103e-01|  5.0000e-01|  5.0000e-01|  5.0000e-01|   -7.215113|   -7.351024|   -7.845536|   -7.495631|   -7.500355|   -9.522497|    1.757864|
|         343|  7.1229e+00|  3.4858e-09|  7.6103e-01|  5.0000e-01|  5.0000e-01|  5.0000e-01|   -7.214480|   -7.350340|   -7.845473|   -7.494961|   -7.499816|   -9.522321|    1.757864|
|         344|  7.1230e+00|  3.4858e-09|  7.6103e-01|  5.0000e-01|  5.0000e-01|  5.0000e-01|   -7.213848|   -7.349657|   -7.845411|   -7.494293|   -7.499278|   -9.522144|    1.757864|
|         345|  7.1224e+00|  3.4858e-09|  7.6103e-01|  5.0000e-01|  5.0000e-01|  5.0000e-01|   -7.213218|   -7.348975|   -7.845350|   -7.493627|   -7.498739|   -9.521966|    1.757864|
|         346|  7.1218e+00|  3.4858e-09|  7.6103e-01|  5.0000e-01|  5.0000e-01|  5.0000e-01|   -7.212590|   -7.348294|   -7.845291|   -7.492961|   -7.498201|   -9.521787|    1.757865|
|         347|  7.1218e+00|  3.4857e-09|  7.6103e-01|  5.0000e-01|  5.0000e-01|  5.0000e-01|   -7.211963|   -7.347614|   -7.845232|   -7.492297|   -7.497664|   -9.521608|    1.757865|
|         348|  7.1215e+00|  3.4857e-09|  7.6103e-01|  5.0000e-01|  5.0000e-01|  5.0000e-01|   -7.211338|   -7.346936|   -7.845176|   -7.491635|   -7.497127|   -9.521428|    1.757865|
|         349|  7.1211e+00|  3.4857e-09|  7.6103e-01|  5.0000e-01|  5.0000e-01|  5.0000e-01|   -7.210714|   -7.346258|   -7.845121|   -7.490974|   -7.496590|   -9.521247|    1.757865|
[...]
|        8995|  7.0701e+00|  3.2094e-09|  7.6103e-01|  5.0000e-01|  5.0000e-01|  5.0000e-01|   -7.760852|   -7.883033|   -8.400091|   -8.034903|   -8.029555|  -10.056979|    1.757947|
|        8996|  7.0700e+00|  3.2094e-09|  7.6103e-01|  5.0000e-01|  5.0000e-01|  5.0000e-01|   -7.761190|   -7.883394|   -8.400378|   -8.035139|   -8.029810|  -10.057105|    1.757947|
|        8997|  7.0700e+00|  3.2094e-09|  7.6103e-01|  5.0000e-01|  5.0000e-01|  5.0000e-01|   -7.761532|   -7.883758|   -8.400665|   -8.035379|   -8.030067|  -10.057233|    1.757947|
|        8998|  7.0699e+00|  3.2093e-09|  7.6103e-01|  5.0000e-01|  5.0000e-01|  5.0000e-01|   -7.761876|   -7.884126|   -8.400952|   -8.035622|   -8.030327|  -10.057360|    1.757948|
|        8999|  7.0699e+00|  3.2093e-09|  7.6103e-01|  5.0000e-01|  5.0000e-01|  5.0000e-01|   -7.762223|   -7.884497|   -8.401240|   -8.035869|   -8.030590|  -10.057489|    1.757948|
|        9000|  7.0698e+00|  3.2093e-09|  7.6103e-01|  5.0000e-01|  5.0000e-01|  5.0000e-01|   -7.762573|   -7.884871|   -8.401527|   -8.036119|   -8.030856|  -10.057618|    1.757948|
+-----------------------------------------------------------------------+
|        File Writing Summary       |              Filename             |
+-----------------------------------------------------------------------+
|SU2 binary restart                 |restart_flow.dat                   |
|Paraview                           |flow.vtu                           |
|Paraview surface                   |surface_flow.vtu                   |
+-----------------------------------------------------------------------+
+-------------------------------------------------------------------------------------------------------------------------------------------------------------------------------------+
|  Inner_Iter|   Time(sec)|      Min DT|      Max DT|     Min CFL|     Max CFL|     Avg CFL|    rms[Rho]|   rms[RhoU]|   rms[RhoV]|   rms[RhoW]|   rms[RhoE]|     rms[nu]|          CD|
+-------------------------------------------------------------------------------------------------------------------------------------------------------------------------------------+
|        9001|  7.0729e+00|  3.2093e-09|  7.6103e-01|  5.0000e-01|  5.0000e-01|  5.0000e-01|   -7.762926|   -7.885249|   -8.401815|   -8.036373|   -8.031124|  -10.057748|    1.757949|
|        9002|  7.0729e+00|  3.2092e-09|  7.6103e-01|  5.0000e-01|  5.0000e-01|  5.0000e-01|   -7.763282|   -7.885630|   -8.402102|   -8.036630|   -8.031396|  -10.057879|    1.757949|
|        9003|  7.0728e+00|  3.2092e-09|  7.6103e-01|  5.0000e-01|  5.0000e-01|  5.0000e-01|   -7.763641|   -7.886015|   -8.402390|   -8.036891|   -8.031670|  -10.058010|    1.757949|
|        9004|  7.0728e+00|  3.2092e-09|  7.6103e-01|  5.0000e-01|  5.0000e-01|  5.0000e-01|   -7.764003|   -7.886403|   -8.402678|   -8.037155|   -8.031946|  -10.058142|    1.757950|
|        9005|  7.0728e+00|  3.2091e-09|  7.6103e-01|  5.0000e-01|  5.0000e-01|  5.0000e-01|   -7.764367|   -7.886794|   -8.402965|   -8.037423|   -8.032226|  -10.058275|    1.757950|
|        9006|  7.0727e+00|  3.2091e-09|  7.6103e-01|  5.0000e-01|  5.0000e-01|  5.0000e-01|   -7.764735|   -7.887189|   -8.403253|   -8.037694|   -8.032508|  -10.058408|    1.757951|
|        9007|  7.0727e+00|  3.2091e-09|  7.6103e-01|  5.0000e-01|  5.0000e-01|  5.0000e-01|   -7.765105|   -7.887587|   -8.403540|   -8.037969|   -8.032793|  -10.058542|    1.757951|
|        9008|  7.0726e+00|  3.2091e-09|  7.6103e-01|  5.0000e-01|  5.0000e-01|  5.0000e-01|   -7.765478|   -7.887988|   -8.403828|   -8.038247|   -8.033081|  -10.058677|    1.757951|
|        9009|  7.0725e+00|  3.2090e-09|  7.6103e-01|  5.0000e-01|  5.0000e-01|  5.0000e-01|   -7.765854|   -7.888393|   -8.404115|   -8.038529|   -8.033371|  -10.058813|    1.757952|
|        9010|  7.0725e+00|  3.2090e-09|  7.6103e-01|  5.0000e-01|  5.0000e-01|  5.0000e-01|   -7.766233|   -7.888801|   -8.404402|   -8.038814|   -8.033665|  -10.058949|    1.757952|
|        9011|  7.0724e+00|  3.2090e-09|  7.6103e-01|  5.0000e-01|  5.0000e-01|  5.0000e-01|   -7.766614|   -7.889213|   -8.404689|   -8.039102|   -8.033961|  -10.059085|    1.757952|
|        9012|  7.0724e+00|  3.2089e-09|  7.6103e-01|  5.0000e-01|  5.0000e-01|  5.0000e-01|   -7.766999|   -7.889628|   -8.404975|   -8.039394|   -8.034259|  -10.059223|    1.757953|
|        9013|  7.0724e+00|  3.2089e-09|  7.6103e-01|  5.0000e-01|  5.0000e-01|  5.0000e-01|   -7.767386|   -7.890046|   -8.405262|   -8.039690|   -8.034561|  -10.059361|    1.757953|
|        9014|  7.0723e+00|  3.2089e-09|  7.6103e-01|  5.0000e-01|  5.0000e-01|  5.0000e-01|   -7.767776|   -7.890468|   -8.405548|   -8.039989|   -8.034865|  -10.059500|    1.757954|
|        9015|  7.0722e+00|  3.2089e-09|  7.6103e-01|  5.0000e-01|  5.0000e-01|  5.0000e-01|   -7.768169|   -7.890893|   -8.405833|   -8.040291|   -8.035172|  -10.059639|    1.757954|
|        9016|  7.0722e+00|  3.2088e-09|  7.6103e-01|  5.0000e-01|  5.0000e-01|  5.0000e-01|   -7.768564|   -7.891321|   -8.406119|   -8.040597|   -8.035481|  -10.059779|    1.757954|
|        9017|  7.0721e+00|  3.2088e-09|  7.6103e-01|  5.0000e-01|  5.0000e-01|  5.0000e-01|   -7.768963|   -7.891752|   -8.406404|   -8.040906|   -8.035793|  -10.059920|    1.757955|
|        9018|  7.0721e+00|  3.2088e-09|  7.6103e-01|  5.0000e-01|  5.0000e-01|  5.0000e-01|   -7.769364|   -7.892187|   -8.406689|   -8.041219|   -8.036108|  -10.060062|    1.757955|
|        9019|  7.0720e+00|  3.2087e-09|  7.6103e-01|  5.0000e-01|  5.0000e-01|  5.0000e-01|   -7.769767|   -7.892625|   -8.406973|   -8.041535|   -8.036426|  -10.060204|    1.757956|
|        9020|  7.0720e+00|  3.2087e-09|  7.6103e-01|  5.0000e-01|  5.0000e-01|  5.0000e-01|   -7.770174|   -7.893067|   -8.407257|   -8.041855|   -8.036746|  -10.060347|    1.757956|
|        9021|  7.0719e+00|  3.2087e-09|  7.6103e-01|  5.0000e-01|  5.0000e-01|  5.0000e-01|   -7.770583|   -7.893511|   -8.407540|   -8.042178|   -8.037068|  -10.060490|    1.757956|
|        9022|  7.0719e+00|  3.2087e-09|  7.6103e-01|  5.0000e-01|  5.0000e-01|  5.0000e-01|   -7.770995|   -7.893959|   -8.407823|   -8.042504|   -8.037394|  -10.060634|    1.757957|
|        9023|  7.0718e+00|  3.2086e-09|  7.6103e-01|  5.0000e-01|  5.0000e-01|  5.0000e-01|   -7.771409|   -7.894410|   -8.408105|   -8.042834|   -8.037722|  -10.060779|    1.757957|
|        9024|  7.0718e+00|  3.2086e-09|  7.6103e-01|  5.0000e-01|  5.0000e-01|  5.0000e-01|   -7.771827|   -7.894865|   -8.408387|   -8.043167|   -8.038052|  -10.060925|    1.757957|
|        9025|  7.0717e+00|  3.2086e-09|  7.6103e-01|  5.0000e-01|  5.0000e-01|  5.0000e-01|   -7.772246|   -7.895322|   -8.408668|   -8.043504|   -8.038385|  -10.061071|    1.757958|
|        9026|  7.0717e+00|  3.2085e-09|  7.6103e-01|  5.0000e-01|  5.0000e-01|  5.0000e-01|   -7.772669|   -7.895783|   -8.408949|   -8.043843|   -8.038721|  -10.061217|    1.757958|
|        9027|  7.0716e+00|  3.2085e-09|  7.6103e-01|  5.0000e-01|  5.0000e-01|  5.0000e-01|   -7.773094|   -7.896247|   -8.409229|   -8.044187|   -8.039059|  -10.061365|    1.757959|
|        9028|  7.0716e+00|  3.2085e-09|  7.6103e-01|  5.0000e-01|  5.0000e-01|  5.0000e-01|   -7.773522|   -7.896715|   -8.409508|   -8.044533|   -8.039400|  -10.061513|    1.757959|
|        9029|  7.0715e+00|  3.2085e-09|  7.6103e-01|  5.0000e-01|  5.0000e-01|  5.0000e-01|   -7.773952|   -7.897185|   -8.409786|   -8.044883|   -8.039744|  -10.061662|    1.757959|
|        9030|  7.0715e+00|  3.2084e-09|  7.6103e-01|  5.0000e-01|  5.0000e-01|  5.0000e-01|   -7.774385|   -7.897659|   -8.410064|   -8.045237|   -8.040090|  -10.061811|    1.757960|
|        9031|  7.0714e+00|  3.2084e-09|  7.6103e-01|  5.0000e-01|  5.0000e-01|  5.0000e-01|   -7.774820|   -7.898136|   -8.410341|   -8.045593|   -8.040438|  -10.061961|    1.757960|
|        9032|  7.0713e+00|  3.2084e-09|  7.6103e-01|  5.0000e-01|  5.0000e-01|  5.0000e-01|   -7.775258|   -7.898616|   -8.410617|   -8.045953|   -8.040789|  -10.062112|    1.757961|
|        9033|  7.0713e+00|  3.2083e-09|  7.6103e-01|  5.0000e-01|  5.0000e-01|  5.0000e-01|   -7.775699|   -7.899099|   -8.410893|   -8.046317|   -8.041142|  -10.062263|    1.757961|
|        9034|  7.0712e+00|  3.2083e-09|  7.6103e-01|  5.0000e-01|  5.0000e-01|  5.0000e-01|   -7.776142|   -7.899585|   -8.411168|   -8.046683|   -8.041498|  -10.062415|    1.757961|
|        9035|  7.0712e+00|  3.2083e-09|  7.6103e-01|  5.0000e-01|  5.0000e-01|  5.0000e-01|   -7.776587|   -7.900074|   -8.411441|   -8.047053|   -8.041857|  -10.062568|    1.757962|
|        9036|  7.0711e+00|  3.2082e-09|  7.6103e-01|  5.0000e-01|  5.0000e-01|  5.0000e-01|   -7.777035|   -7.900567|   -8.411714|   -8.047427|   -8.042218|  -10.062721|    1.757962|
|        9037|  7.0711e+00|  3.2082e-09|  7.6103e-01|  5.0000e-01|  5.0000e-01|  5.0000e-01|   -7.777485|   -7.901062|   -8.411986|   -8.047803|   -8.042581|  -10.062875|    1.757963|
|        9038|  7.0710e+00|  3.2082e-09|  7.6103e-01|  5.0000e-01|  5.0000e-01|  5.0000e-01|   -7.777938|   -7.901561|   -8.412257|   -8.048183|   -8.042947|  -10.063029|    1.757963|
|        9039|  7.0709e+00|  3.2082e-09|  7.6103e-01|  5.0000e-01|  5.0000e-01|  5.0000e-01|   -7.778393|   -7.902062|   -8.412527|   -8.048566|   -8.043315|  -10.063184|    1.757963|
|        9040|  7.0709e+00|  3.2081e-09|  7.6103e-01|  5.0000e-01|  5.0000e-01|  5.0000e-01|   -7.778851|   -7.902567|   -8.412796|   -8.048952|   -8.043685|  -10.063340|    1.757964|
|        9041|  7.0708e+00|  3.2081e-09|  7.6103e-01|  5.0000e-01|  5.0000e-01|  5.0000e-01|   -7.779310|   -7.903074|   -8.413064|   -8.049341|   -8.044058|  -10.063497|    1.757964|
|        9042|  7.0708e+00|  3.2081e-09|  7.6103e-01|  5.0000e-01|  5.0000e-01|  5.0000e-01|   -7.779773|   -7.903585|   -8.413330|   -8.049734|   -8.044434|  -10.063654|    1.757965|
|        9043|  7.0707e+00|  3.2080e-09|  7.6103e-01|  5.0000e-01|  5.0000e-01|  5.0000e-01|   -7.780237|   -7.904099|   -8.413596|   -8.050130|   -8.044811|  -10.063811|    1.757965|
|        9044|  7.0707e+00|  3.2080e-09|  7.6103e-01|  5.0000e-01|  5.0000e-01|  5.0000e-01|   -7.780704|   -7.904615|   -8.413860|   -8.050529|   -8.045191|  -10.063970|    1.757965|
|        9045|  7.0707e+00|  3.2080e-09|  7.6103e-01|  5.0000e-01|  5.0000e-01|  5.0000e-01|   -7.781173|   -7.905135|   -8.414124|   -8.050931|   -8.045573|  -10.064129|    1.757966|
|        9046|  7.0706e+00|  3.2080e-09|  7.6103e-01|  5.0000e-01|  5.0000e-01|  5.0000e-01|   -7.781644|   -7.905657|   -8.414386|   -8.051336|   -8.045958|  -10.064288|    1.757966|
|        9047|  7.0706e+00|  3.2079e-09|  7.6103e-01|  5.0000e-01|  5.0000e-01|  5.0000e-01|   -7.782118|   -7.906183|   -8.414647|   -8.051744|   -8.046345|  -10.064449|    1.757967|
|        9048|  7.0705e+00|  3.2079e-09|  7.6103e-01|  5.0000e-01|  5.0000e-01|  5.0000e-01|   -7.782594|   -7.906711|   -8.414906|   -8.052156|   -8.046734|  -10.064609|    1.757967|
|        9049|  7.0705e+00|  3.2079e-09|  7.6103e-01|  5.0000e-01|  5.0000e-01|  5.0000e-01|   -7.783072|   -7.907242|   -8.415165|   -8.052571|   -8.047125|  -10.064771|    1.757967|
|        9050|  7.0704e+00|  3.2078e-09|  7.6103e-01|  5.0000e-01|  5.0000e-01|  5.0000e-01|   -7.783552|   -7.907776|   -8.415421|   -8.052988|   -8.047518|  -10.064933|    1.757968|
|        9051|  7.0703e+00|  3.2078e-09|  7.6103e-01|  5.0000e-01|  5.0000e-01|  5.0000e-01|   -7.784034|   -7.908313|   -8.415677|   -8.053409|   -8.047914|  -10.065095|    1.757968|
|        9052|  7.0703e+00|  3.2078e-09|  7.6103e-01|  5.0000e-01|  5.0000e-01|  5.0000e-01|   -7.784518|   -7.908852|   -8.415931|   -8.053833|   -8.048312|  -10.065259|    1.757969|
|        9053|  7.0702e+00|  3.2078e-09|  7.6103e-01|  5.0000e-01|  5.0000e-01|  5.0000e-01|   -7.785004|   -7.909394|   -8.416184|   -8.054259|   -8.048712|  -10.065423|    1.757969|
|        9054|  7.0702e+00|  3.2077e-09|  7.6103e-01|  5.0000e-01|  5.0000e-01|  5.0000e-01|   -7.785493|   -7.909940|   -8.416435|   -8.054689|   -8.049114|  -10.065587|    1.757970|
|        9055|  7.0701e+00|  3.2077e-09|  7.6103e-01|  5.0000e-01|  5.0000e-01|  5.0000e-01|   -7.785983|   -7.910487|   -8.416685|   -8.055122|   -8.049518|  -10.065752|    1.757970|
|        9056|  7.0700e+00|  3.2077e-09|  7.6103e-01|  5.0000e-01|  5.0000e-01|  5.0000e-01|   -7.786476|   -7.911038|   -8.416933|   -8.055558|   -8.049925|  -10.065918|    1.757970|
|        9057|  7.0700e+00|  3.2076e-09|  7.6103e-01|  5.0000e-01|  5.0000e-01|  5.0000e-01|   -7.786970|   -7.911591|   -8.417180|   -8.055996|   -8.050333|  -10.066084|    1.757971|
|        9058|  7.0699e+00|  3.2076e-09|  7.6103e-01|  5.0000e-01|  5.0000e-01|  5.0000e-01|   -7.787466|   -7.912147|   -8.417425|   -8.056438|   -8.050744|  -10.066251|    1.757971|
|        9059|  7.0699e+00|  3.2076e-09|  7.6103e-01|  5.0000e-01|  5.0000e-01|  5.0000e-01|   -7.787964|   -7.912706|   -8.417669|   -8.056882|   -8.051156|  -10.066419|    1.757972|
|        9060|  7.0698e+00|  3.2076e-09|  7.6103e-01|  5.0000e-01|  5.0000e-01|  5.0000e-01|   -7.788464|   -7.913267|   -8.417911|   -8.057330|   -8.051571|  -10.066587|    1.757972|
|        9061|  7.0698e+00|  3.2075e-09|  7.6103e-01|  5.0000e-01|  5.0000e-01|  5.0000e-01|   -7.788966|   -7.913831|   -8.418151|   -8.057780|   -8.051987|  -10.066756|    1.757972|
|        9062|  7.0697e+00|  3.2075e-09|  7.6103e-01|  5.0000e-01|  5.0000e-01|  5.0000e-01|   -7.789470|   -7.914397|   -8.418389|   -8.058233|   -8.052406|  -10.066925|    1.757973|
|        9063|  7.0697e+00|  3.2075e-09|  7.6103e-01|  5.0000e-01|  5.0000e-01|  5.0000e-01|   -7.789975|   -7.914966|   -8.418626|   -8.058689|   -8.052826|  -10.067095|    1.757973|
|        9064|  7.0696e+00|  3.2074e-09|  7.6103e-01|  5.0000e-01|  5.0000e-01|  5.0000e-01|   -7.790483|   -7.915537|   -8.418861|   -8.059148|   -8.053249|  -10.067265|    1.757974|
|        9065|  7.0695e+00|  3.2074e-09|  7.6103e-01|  5.0000e-01|  5.0000e-01|  5.0000e-01|   -7.790991|   -7.916111|   -8.419095|   -8.059609|   -8.053673|  -10.067436|    1.757974|
|        9066|  7.0695e+00|  3.2074e-09|  7.6103e-01|  5.0000e-01|  5.0000e-01|  5.0000e-01|   -7.791502|   -7.916687|   -8.419326|   -8.060073|   -8.054099|  -10.067608|    1.757975|
|        9067|  7.0694e+00|  3.2074e-09|  7.6103e-01|  5.0000e-01|  5.0000e-01|  5.0000e-01|   -7.792014|   -7.917266|   -8.419555|   -8.060540|   -8.054527|  -10.067780|    1.757975|
|        9068|  7.0694e+00|  3.2073e-09|  7.6103e-01|  5.0000e-01|  5.0000e-01|  5.0000e-01|   -7.792528|   -7.917847|   -8.419783|   -8.061010|   -8.054957|  -10.067953|    1.757975|
|        9069|  7.0693e+00|  3.2073e-09|  7.6103e-01|  5.0000e-01|  5.0000e-01|  5.0000e-01|   -7.793044|   -7.918431|   -8.420009|   -8.061482|   -8.055389|  -10.068126|    1.757976|
|        9070|  7.0693e+00|  3.2073e-09|  7.6103e-01|  5.0000e-01|  5.0000e-01|  5.0000e-01|   -7.793561|   -7.919017|   -8.420233|   -8.061957|   -8.055822|  -10.068300|    1.757976|
|        9071|  7.0692e+00|  3.2072e-09|  7.6103e-01|  5.0000e-01|  5.0000e-01|  5.0000e-01|   -7.794079|   -7.919605|   -8.420454|   -8.062435|   -8.056257|  -10.068475|    1.757977|
|        9072|  7.0691e+00|  3.2072e-09|  7.6103e-01|  5.0000e-01|  5.0000e-01|  5.0000e-01|   -7.794599|   -7.920195|   -8.420674|   -8.062915|   -8.056694|  -10.068650|    1.757977|
|        9073|  7.0691e+00|  3.2072e-09|  7.6103e-01|  5.0000e-01|  5.0000e-01|  5.0000e-01|   -7.795120|   -7.920788|   -8.420892|   -8.063397|   -8.057132|  -10.068826|    1.757978|
|        9074|  7.0690e+00|  3.2072e-09|  7.6103e-01|  5.0000e-01|  5.0000e-01|  5.0000e-01|   -7.795643|   -7.921383|   -8.421108|   -8.063883|   -8.057573|  -10.069002|    1.757978|
|        9075|  7.0690e+00|  3.2071e-09|  7.6103e-01|  5.0000e-01|  5.0000e-01|  5.0000e-01|   -7.796167|   -7.921980|   -8.421321|   -8.064370|   -8.058015|  -10.069179|    1.757978|
|        9076|  7.0689e+00|  3.2071e-09|  7.6103e-01|  5.0000e-01|  5.0000e-01|  5.0000e-01|   -7.796693|   -7.922579|   -8.421533|   -8.064860|   -8.058458|  -10.069356|    1.757979|
|        9077|  7.0689e+00|  3.2071e-09|  7.6103e-01|  5.0000e-01|  5.0000e-01|  5.0000e-01|   -7.797219|   -7.923181|   -8.421742|   -8.065353|   -8.058903|  -10.069534|    1.757979|
|        9078|  7.0688e+00|  3.2070e-09|  7.6103e-01|  5.0000e-01|  5.0000e-01|  5.0000e-01|   -7.797747|   -7.923784|   -8.421949|   -8.065848|   -8.059350|  -10.069713|    1.757980|
|        9079|  7.0688e+00|  3.2070e-09|  7.6103e-01|  5.0000e-01|  5.0000e-01|  5.0000e-01|   -7.798277|   -7.924390|   -8.422154|   -8.066346|   -8.059798|  -10.069892|    1.757980|
|        9080|  7.0687e+00|  3.2070e-09|  7.6103e-01|  5.0000e-01|  5.0000e-01|  5.0000e-01|   -7.798807|   -7.924997|   -8.422357|   -8.066845|   -8.060247|  -10.070072|    1.757981|
|        9081|  7.0687e+00|  3.2070e-09|  7.6103e-01|  5.0000e-01|  5.0000e-01|  5.0000e-01|   -7.799338|   -7.925607|   -8.422557|   -8.067347|   -8.060698|  -10.070252|    1.757981|
|        9082|  7.0686e+00|  3.2069e-09|  7.6103e-01|  5.0000e-01|  5.0000e-01|  5.0000e-01|   -7.799871|   -7.926218|   -8.422755|   -8.067852|   -8.061151|  -10.070432|    1.757981|
|        9083|  7.0686e+00|  3.2069e-09|  7.6103e-01|  5.0000e-01|  5.0000e-01|  5.0000e-01|   -7.800404|   -7.926831|   -8.422951|   -8.068358|   -8.061604|  -10.070614|    1.757982|
|        9084|  7.0686e+00|  3.2069e-09|  7.6103e-01|  5.0000e-01|  5.0000e-01|  5.0000e-01|   -7.800939|   -7.927446|   -8.423144|   -8.068867|   -8.062059|  -10.070796|    1.757982|
|        9085|  7.0685e+00|  3.2068e-09|  7.6103e-01|  5.0000e-01|  5.0000e-01|  5.0000e-01|   -7.801474|   -7.928063|   -8.423335|   -8.069378|   -8.062516|  -10.070978|    1.757983|

scontrol show job 1157292
JobId=1157292 JobName=m6_aoa32
   UserId=anthonyy(3152141) GroupId=anthonyy(3152141) MCS_label=N/A
   Priority=545563 Nice=0 Account=rrg-jphickey QOS=normal
   JobState=TIMEOUT Reason=TimeLimit Dependency=(null)
   Requeue=0 Restarts=0 BatchFlag=1 Reboot=0 ExitCode=0:15
   RunTime=18:00:30 TimeLimit=18:00:00 TimeMin=N/A
   SubmitTime=2026-03-09T21:09:50 EligibleTime=2026-03-09T21:09:50
   AccrueTime=2026-03-09T21:09:50
   StartTime=2026-03-09T21:15:01 EndTime=2026-03-10T15:15:31 Deadline=N/A
   SuspendTime=None SecsPreSuspend=0 LastSchedEval=2026-03-09T21:15:01 Scheduler=Backfill
   Partition=compute AllocNode:Sid=tri-login06:1483502
   ReqNodeList=(null) ExcNodeList=(null)
   NodeList=tri[0972,1006]
   BatchHost=tri0972
   NumNodes=2 NumCPUs=384 NumTasks=128 CPUs/Task=1 ReqB:S:C:T=0:0:*:*
   ReqTRES=cpu=128,mem=1534000M,node=2,billing=128
   AllocTRES=cpu=384,mem=1534000M,node=2,billing=384
   Socks/Node=* NtasksPerN:B:S:C=64:0:*:* CoreSpec=*
   MinCPUsNode=64 MinMemoryNode=0 MinTmpDiskNode=0
   Features=(null) DelayBoot=00:00:00
   OverSubscribe=NO Contiguous=0 Licenses=(null) Network=(null)
   Command=/scratch/anthonyy/reentry/orion/cases/m6_aoa32/run.sh
   WorkDir=/scratch/anthonyy/reentry/orion/cases/m6_aoa32
   Comment=/opt/slurm/bin/sbatch --export=NONE --get-user-env=L run.sh 
   StdErr=/scratch/anthonyy/reentry/orion/cases/m6_aoa32/orion_1157292.err
   StdIn=/dev/null
   StdOut=/scratch/anthonyy/reentry/orion/cases/m6_aoa32/orion_1157292.out
   TresPerTask=cpu=1
   

sacct -j 1157292
JobID           JobName    Account    Elapsed  MaxVMSize     MaxRSS  SystemCPU    UserCPU ExitCode 
------------ ---------- ---------- ---------- ---------- ---------- ---------- ---------- -------- 
1157292        m6_aoa32 rrg-jphic+   18:00:30                         17:03:21 94-10:57:+      0:0 
1157292.bat+      batch rrg-jphic+   18:00:31          0      9908K  00:00.131  00:00.592     0:15 
1157292.ext+     extern rrg-jphic+   18:00:36          0          0   00:00:00  00:00.001      0:0 
1157292.0       SU2_CFD rrg-jphic+   18:00:28          0  10646300K   17:03:21 94-10:57:+     0:15 

