Nodes: tri[0224,0241]
Tasks: 128
NPN:   64

-------------------------------------------------------------------------
|    ___ _   _ ___                                                      |
|   / __| | | |_  )   Release 7.5.1 "Blackbird"                         |
|   \__ \ |_| |/ /                                                      |
|   |___/\___//___|   Suite (Computational Fluid Dynamics Code)         |
|                                                                       |
-------------------------------------------------------------------------
| SU2 Project Website: https://su2code.github.io                        |
|                                                                       |
| The SU2 Project is maintained by the SU2 Foundation                   |
| (http://su2foundation.org)                                            |
-------------------------------------------------------------------------
| Copyright 2012-2023, SU2 Contributors                                 |
|                                                                       |
| SU2 is free software; you can redistribute it and/or                  |
| modify it under the terms of the GNU Lesser General Public            |
| License as published by the Free Software Foundation; either          |
| version 2.1 of the License, or (at your option) any later version.    |
|                                                                       |
| SU2 is distributed in the hope that it will be useful,                |
| but WITHOUT ANY WARRANTY; without even the implied warranty of        |
| MERCHANTABILITY or FITNESS FOR A PARTICULAR PURPOSE. See the GNU      |
| Lesser General Public License for more details.                       |
|                                                                       |
| You should have received a copy of the GNU Lesser General Public      |
| License along with SU2. If not, see <http://www.gnu.org/licenses/>.   |
-------------------------------------------------------------------------

Parsing config file for zone 0

----------------- Physical Case Definition ( Zone 0 ) -------------------
Compressible RANS equations.
Turbulence model: Spalart-Allmaras-noft2
Hybrid RANS/LES: No Hybrid RANS/LES
Mach number: 6.
Angle of attack (AoA): 32 deg, and angle of sideslip (AoS): 0 deg.
Reynolds number: 6.86229e+08. Reference length 5.
No restart solution, use the values at infinity (freestream).
Non-Dimensional simulation (V=1.0, Rho=1.0, T=1.0 at the farfield).
The reference area will be computed using y(2D) or z(3D) projection.
The semi-span will be computed using the max y(3D) value.
The reference length is 0.64607 m.
Reference origin for moment evaluation is (0.25, 0, 0).
Surface(s) where the force coefficients are evaluated: ORION_SURFACE.

Input mesh file name: fine.su2

--------------- Space Numerical Integration ( Zone 0 ) ------------------
Jameson-Schmidt-Turkel scheme (2nd order in space) for the flow inviscid terms.
JST viscous coefficients (2nd & 4th): 0.5, 0.02.
The method includes a grid stretching correction (p = 0.3).
Scalar upwind solver for the turbulence model.
First order integration in space.
Average of gradients with correction (viscous flow terms).
Average of gradients with correction (viscous turbulence terms).
Gradient for upwind reconstruction: Green-Gauss.
Gradient for viscous and source terms: Green-Gauss.

--------------- Time Numerical Integration  ( Zone 0 ) ------------------
Local time stepping (steady state simulation).
Euler implicit method for the flow equations.
FGMRES is used for solving the linear system.
Using a ILU(0) preconditioning.
Convergence criteria of the linear solver: 1e-06.
Max number of linear iterations: 50.
CFL adaptation. Factor down: 0.5, factor up: 1.1,
                lower limit: 0.05, upper limit: 0.5,
                acceptable linear residual: 0.001.
Courant-Friedrichs-Lewy number:     0.05
Euler implicit time integration for the turbulence model.

------------------ Convergence Criteria  ( Zone 0 ) ---------------------
Maximum number of solver subiterations: 999999.
Begin convergence monitoring at iteration 5.
Residual minimum value: 1e-8.
Cauchy series min. value: 1e-10.
Number of Cauchy elements: 100.
Begin windowed time average at iteration 0.

-------------------- Output Information ( Zone 0 ) ----------------------
File writing frequency: 
+------------------------------------+
|                     File| Frequency|
+------------------------------------+
|                  RESTART|       150|
|                 PARAVIEW|       150|
|         SURFACE_PARAVIEW|       150|
+------------------------------------+
Writing the convergence history file every 1 inner iterations.
Writing the screen convergence history every 1 inner iterations.
The tabular file format is CSV (.csv).
Convergence history file name: history.
Forces breakdown file name: forces_breakdown.dat.
Surface file name: surface_flow.
Volume file name: flow.
Restart file name: restart_flow.

------------- Config File Boundary Information ( Zone 0 ) ---------------
+-----------------------------------------------------------------------+
|                        Marker Type|                        Marker Name|
+-----------------------------------------------------------------------+
|                          Far-field|                           FARFIELD|
+-----------------------------------------------------------------------+
|                     Heat flux wall|                      ORION_SURFACE|
+-----------------------------------------------------------------------+

-------------------- Output Preprocessing ( Zone 0 ) --------------------

WARNING: SURFACE_PRESSURE_DROP can only be computed for at least 2 surfaces (outlet, inlet, ...)

Screen output fields: INNER_ITER, WALL_TIME, MIN_DELTA_TIME, MAX_DELTA_TIME, MIN_CFL, MAX_CFL, AVG_CFL, RMS_DENSITY, RMS_MOMENTUM-X, RMS_MOMENTUM-Y, RMS_MOMENTUM-Z, RMS_ENERGY, RMS_NU_TILDE, DRAG
History output group(s): ITER, RMS_RES
Convergence field(s): RMS_DENSITY
Warning: No (valid) fields chosen for time convergence monitoring. Time convergence monitoring inactive.
Volume output fields: MACH, PRESSURE, TEMPERATURE, DENSITY, HEAT_FLUX, Y_PLUS, COORDINATES, SOLUTION

------------------- Geometry Preprocessing ( Zone 0 ) -------------------
Three dimensional problem.
62211324 grid points before partitioning.
190879888 volume elements before partitioning.
2 surface markers.
4104 boundary elements in index 0 (Marker = FARFIELD).
1824836 boundary elements in index 1 (Marker = ORION_SURFACE).
Executing the partitioning functions.
Building the graph adjacency structure.
Calling ParMETIS... graph partitioning complete (4959327 edge cuts).
Distributing ParMETIS coloring.
Rebalancing vertices.
Rebalancing volume element connectivity.
Rebalancing markers and surface elements.
66952290 vertices including ghost points. 
197997438 interior elements including halo cells. 
103171259 tetrahedra.
94500655 prisms.
325524 pyramids.
Establishing MPI communication patterns.
Setting point connectivity.
Renumbering points (Reverse Cuthill McKee Ordering).
Recomputing point connectivity.
Setting element connectivity.
Checking the numerical grid orientation.
All volume elements are correctly orientend.
All surface elements are correctly orientend.
Identifying edges and vertices.
Setting the control volume structure.
Volume of the computational grid: 535693.
Searching for the closest normal neighbors to the surfaces.
Storing a mapping from global to local point index.
Compute the surface curvature.
Max K: 132.896. Mean K: 3.9104. Standard deviation K: 7.49569.
Checking for periodicity.
Computing mesh quality statistics for the dual control volumes.
+--------------------------------------------------------------+
|           Mesh Quality Metric|        Minimum|        Maximum|
+--------------------------------------------------------------+
|    Orthogonality Angle (deg.)|        53.0661|             90|
|     CV Face Area Aspect Ratio|        1.01143|        75298.5|
|           CV Sub-Volume Ratio|        1.00029|        45.0258|
+--------------------------------------------------------------+
Finding max control volume width.
Communicating number of neighbors.
Reference area = 11.531 m^2.
Semi-span length = 2.49999 m.
Wetted area = 57.9072 m^2.
Area projection in the x-plane = 19.6343 m^2, y-plane = 11.531 m^2, z-plane = 11.531 m^2.
Max. coordinate in the x-direction = 2.575 m, y-direction = 2.49999 m, z-direction = 2.49999 m.
Min. coordinate in the x-direction = -0.71 m, y-direction = -2.49999 m, z-direction = -2.5 m.
Computing wall distances.

-------------------- Solver Preprocessing ( Zone 0 ) --------------------
Viscous flow: Computing pressure using the ideal gas law
based on the free-stream temperature and a density computed
from the Reynolds number.
Force coefficients computed using free-stream values.

-- Models:
+------------------------------------------------------------------------------+
|          Viscosity Model|        Conductivity Model|              Fluid Model|
+------------------------------------------------------------------------------+
|               SUTHERLAND|          CONSTANT_PRANDTL|             STANDARD_AIR|
+------------------------------------------------------------------------------+
-- Fluid properties:
+------------------------------------------------------------------------------+
|                  Name|    Dim. value|    Ref. value|      Unit|Non-dim. value|
+------------------------------------------------------------------------------+
|        Ref. Viscosity|     1.716e-05|       2455.73|   N.s/m^2|   6.98773e-09|
|      Sutherland Temp.|        273.15|        288.15|         K|      0.947944|
|     Sutherland Const.|         110.4|        288.15|         K|      0.383134|
+------------------------------------------------------------------------------+
|        Prandtl (Lam.)|             -|             -|         -|          0.72|
|       Prandtl (Turb.)|             -|             -|         -|           0.9|
+------------------------------------------------------------------------------+
|          Gas Constant|       287.058|       14467.7|  N.m/kg.K|     0.0198413|
|      Spec. Heat Ratio|             -|             -|         -|           1.4|
+------------------------------------------------------------------------------+
-- Initial and free-stream conditions:
+------------------------------------------------------------------------------+
|                  Name|    Dim. value|    Ref. value|      Unit|Non-dim. value|
+------------------------------------------------------------------------------+
|       Static Pressure|       99485.6|   5.01407e+06|        Pa|     0.0198413|
|               Density|       1.20274|       1.20274|    kg/m^3|             1|
|           Temperature|        288.15|        288.15|         K|             1|
|          Total Energy|   2.29123e+06|   4.16887e+06|   m^2/s^2|      0.549603|
|            Velocity-X|       1731.53|       2041.78|       m/s|      0.848048|
|            Velocity-Y|             0|       2041.78|       m/s|             0|
|            Velocity-Z|       1081.98|       2041.78|       m/s|      0.529919|
|    Velocity Magnitude|       2041.78|       2041.78|       m/s|             1|
+------------------------------------------------------------------------------+
|             Viscosity|    1.7893e-05|       2455.73|   N.s/m^2|    7.2862e-09|
|          Conductivity|             -|   3.55289e+07|   W/m^2.K|             -|
|     Turb. Kin. Energy|       15633.3|   4.16887e+06|   m^2/s^2|       0.00375|
|     Spec. Dissipation|   1.05085e+08|       2041.78|       1/s|       51467.1|
+------------------------------------------------------------------------------+
|           Mach Number|             -|             -|         -|             6|
|       Reynolds Number|             -|             -|         -|   6.86229e+08|
+------------------------------------------------------------------------------+
Initialize Jacobian structure (Navier-Stokes). MG level: 0.
Initialize Jacobian structure (SA model).

------------------- Numerics Preprocessing ( Zone 0 ) -------------------

----------------- Integration Preprocessing ( Zone 0 ) ------------------

------------------- Iteration Preprocessing ( Zone 0 ) ------------------
Euler/Navier-Stokes/RANS fluid iteration.

------------------------------ Begin Solver -----------------------------

Simulation Run using the Single-zone Driver
WARNING: SU2 was not compiled for an AVX-capable architecture. Performance could be better,
         see https://su2code.github.io/docs_v7/Build-SU2-Linux-MacOS/#compiler-optimizations
+-------------------------------------------------------------------------------------------------------------------------------------------------------------------------------------+
|  Inner_Iter|   Time(sec)|      Min DT|      Max DT|     Min CFL|     Max CFL|     Avg CFL|    rms[Rho]|   rms[RhoU]|   rms[RhoV]|   rms[RhoW]|   rms[RhoE]|     rms[nu]|          CD|
+-------------------------------------------------------------------------------------------------------------------------------------------------------------------------------------+
|           0|  4.9067e+00|  1.0714e-08|  7.6103e-02|  5.5000e-02|  5.5000e-02|  5.5000e-02|   -5.284118|  -16.046820|  -17.682004|  -16.250245|   -5.528667|  -13.238015|    0.399915|
|           1|  4.7022e+00|  1.9421e-08|  8.3713e-02|  6.0500e-02|  6.0500e-02|  6.0500e-02|   -5.434602|   -5.543427|   -6.426211|   -5.704366|   -5.670392|  -13.031562|    0.420835|
|           2|  4.6323e+00|  2.0991e-08|  9.2084e-02|  6.6550e-02|  6.6550e-02|  6.6550e-02|   -5.435658|   -5.553513|   -6.434562|   -5.712393|   -5.671734|  -13.056826|    0.443670|
|           3|  4.5809e+00|  2.2563e-08|  1.0129e-01|  7.3205e-02|  7.3205e-02|  7.3205e-02|   -5.436635|   -5.562872|   -6.442997|   -5.719675|   -5.672799|  -13.085534|    0.468561|
|           4|  4.5394e+00|  2.4210e-08|  1.1142e-01|  8.0526e-02|  8.0526e-02|  8.0526e-02|   -5.437533|   -5.571766|   -6.451530|   -5.726443|   -5.673624|  -13.110279|    0.495668|
|           5|  4.5130e+00|  2.5941e-08|  1.2256e-01|  8.8578e-02|  8.8578e-02|  8.8578e-02|   -5.438349|   -5.580378|   -6.460160|   -5.732858|   -5.674229|  -13.129306|    0.525168|
|           6|  4.4873e+00|  2.7758e-08|  1.3482e-01|  9.7436e-02|  9.7436e-02|  9.7436e-02|   -5.439073|   -5.588842|   -6.468866|   -5.739037|   -5.674621|  -13.146852|    0.557262|
|           7|  4.5460e+00|  2.9663e-08|  1.4830e-01|  1.0718e-01|  1.0718e-01|  1.0718e-01|   -5.439691|   -5.597266|   -6.477603|   -5.745071|   -5.674799|  -13.163830|    0.592167|
|           8|  4.5664e+00|  3.1655e-08|  1.6313e-01|  1.1790e-01|  1.1790e-01|  1.1790e-01|   -5.440182|   -5.605733|   -6.486297|   -5.751034|   -5.674751|  -13.180499|    0.630125|
|           9|  4.5825e+00|  3.3732e-08|  1.7945e-01|  1.2969e-01|  1.2969e-01|  1.2969e-01|   -5.440524|   -5.614309|   -6.494839|   -5.756986|   -5.674460|  -13.196963|    0.671404|
|          10|  4.5938e+00|  3.5890e-08|  1.9739e-01|  1.4266e-01|  1.4266e-01|  1.4266e-01|   -5.440686|   -5.623038|   -6.503086|   -5.762972|   -5.673901|  -13.213327|    0.716304|
|          11|  4.6058e+00|  3.8124e-08|  2.1713e-01|  1.5692e-01|  1.5692e-01|  1.5692e-01|   -5.440635|   -5.631927|   -6.510859|   -5.769015|   -5.673044|  -13.229678|    0.765166|
|          12|  4.6168e+00|  4.0412e-08|  2.3884e-01|  1.7261e-01|  1.7261e-01|  1.7261e-01|   -5.440335|   -5.641004|   -6.517960|   -5.775159|   -5.671851|  -13.248040|    0.818382|
|          13|  4.6250e+00|  4.2752e-08|  2.6273e-01|  1.8987e-01|  1.8987e-01|  1.8987e-01|   -5.439745|   -5.650339|   -6.524132|   -5.781491|   -5.670281|  -13.267191|    0.876394|
|          14|  4.6308e+00|  4.5144e-08|  2.8900e-01|  2.0886e-01|  2.0886e-01|  2.0886e-01|   -5.438828|   -5.659968|   -6.529014|   -5.788082|   -5.668292|  -13.286313|    0.939702|
|          15|  4.6353e+00|  4.7580e-08|  3.1790e-01|  2.2975e-01|  2.2975e-01|  2.2975e-01|   -5.437551|   -5.669891|   -6.532226|   -5.794991|   -5.665843|  -13.302625|    1.008869|
|          16|  4.6425e+00|  5.0050e-08|  3.4969e-01|  2.5272e-01|  2.5272e-01|  2.5272e-01|   -5.435872|   -5.680070|   -6.533398|   -5.802279|   -5.662875|  -13.317863|    1.084532|
|          17|  4.6718e+00|  5.2556e-08|  3.8466e-01|  2.7800e-01|  2.7800e-01|  2.7800e-01|   -5.433755|   -5.690437|   -6.532176|   -5.809984|   -5.659331|  -13.332423|    1.167414|
|          18|  4.6991e+00|  5.5096e-08|  4.2313e-01|  3.0580e-01|  3.0580e-01|  3.0580e-01|   -5.431183|   -5.700865|   -6.528323|   -5.818121|   -5.655161|  -13.346932|    1.258327|
|          19|  4.7235e+00|  5.7675e-08|  4.6544e-01|  3.3637e-01|  3.3637e-01|  3.3637e-01|   -5.428165|   -5.711172|   -6.521731|   -5.826695|   -5.650340|  -13.361986|    1.358181|
|          20|  4.7467e+00|  6.0307e-08|  5.1198e-01|  3.7001e-01|  3.7001e-01|  3.7001e-01|   -5.424743|   -5.721106|   -6.512418|   -5.835678|   -5.644873|  -13.375954|    1.467993|
|          21|  4.7684e+00|  6.3026e-08|  5.6318e-01|  4.0701e-01|  4.0701e-01|  4.0701e-01|   -5.421036|   -5.730450|   -6.500517|   -5.845072|   -5.638851|  -13.388251|    1.588917|
|          22|  4.7852e+00|  6.5893e-08|  6.1950e-01|  4.4772e-01|  4.4772e-01|  4.4772e-01|   -5.417256|   -5.739071|   -6.486247|   -5.854887|   -5.632481|  -13.399875|    1.722265|
|          23|  4.8018e+00|  6.9006e-08|  6.8145e-01|  4.9249e-01|  4.9249e-01|  4.9249e-01|   -5.413572|   -5.746207|   -6.469776|   -5.864768|   -5.625973|  -13.411618|    1.869436|
|          24|  4.8342e+00|  7.2487e-08|  7.4959e-01|  5.0000e-01|  5.0000e-01|  5.0000e-01|   -5.410316|   -5.751252|   -6.451134|   -5.874445|   -5.619749|  -13.422265|    2.031874|
|          25|  4.8610e+00|  7.0572e-08|  7.6103e-01|  5.0000e-01|  5.0000e-01|  5.0000e-01|   -5.407954|   -5.753516|   -6.430129|   -5.883485|   -5.614421|  -13.432253|    2.198568|
|          26|  4.8866e+00|  6.8154e-08|  7.6103e-01|  5.0000e-01|  5.0000e-01|  5.0000e-01|   -5.407133|   -5.752096|   -6.408647|   -5.891110|   -5.611195|  -13.441113|    2.366739|
|          27|  4.9142e+00|  6.6330e-08|  7.6103e-01|  5.0000e-01|  5.0000e-01|  5.0000e-01|   -5.408163|   -5.747062|   -6.386995|   -5.896681|   -5.610430|  -13.447956|    2.535417|
|          28|  4.9397e+00|  6.4886e-08|  7.6103e-01|  5.0000e-01|  5.0000e-01|  5.0000e-01|   -5.411247|   -5.738971|   -6.365078|   -5.899673|   -5.612269|  -13.453038|    2.703258|
|          29|  4.9614e+00|  6.3698e-08|  7.6103e-01|  5.0000e-01|  5.0000e-01|  5.0000e-01|   -5.416529|   -5.728718|   -6.342813|   -5.899789|   -5.616831|  -13.456944|    2.868741|
|          30|  4.9849e+00|  6.2687e-08|  7.6103e-01|  5.0000e-01|  5.0000e-01|  5.0000e-01|   -5.424094|   -5.717353|   -6.320129|   -5.897029|   -5.624231|  -13.459180|    3.030204|
|          31|  5.0046e+00|  6.1801e-08|  7.6103e-01|  5.0000e-01|  5.0000e-01|  5.0000e-01|   -5.433962|   -5.706000|   -6.296961|   -5.891770|   -5.634563|  -13.459717|    3.185850|
|          32|  5.0219e+00|  6.0998e-08|  7.6103e-01|  5.0000e-01|  5.0000e-01|  5.0000e-01|   -5.445933|   -5.695389|   -6.273267|   -5.884404|   -5.647705|  -13.459046|    3.333744|
|          33|  5.0379e+00|  6.0251e-08|  7.6103e-01|  5.0000e-01|  5.0000e-01|  5.0000e-01|   -5.459411|   -5.685784|   -6.249028|   -5.875119|   -5.663072|  -13.457144|    3.471832|
|          34|  5.0527e+00|  5.9543e-08|  7.6103e-01|  5.0000e-01|  5.0000e-01|  5.0000e-01|   -5.473189|   -5.676954|   -6.224271|   -5.863865|   -5.679334|  -13.453831|    3.597962|
|          35|  5.0688e+00|  5.8865e-08|  7.6103e-01|  5.0000e-01|  5.0000e-01|  5.0000e-01|   -5.485446|   -5.668561|   -6.199089|   -5.850704|   -5.694347|  -13.449291|    3.709907|
|          36|  5.0827e+00|  5.8208e-08|  7.6103e-01|  5.0000e-01|  5.0000e-01|  5.0000e-01|   -5.493928|   -5.660408|   -6.173687|   -5.835990|   -5.705255|  -13.443721|    3.805438|
|          37|  5.0964e+00|  5.7568e-08|  7.6103e-01|  5.0000e-01|  5.0000e-01|  5.0000e-01|   -5.496384|   -5.652453|   -6.148392|   -5.820299|   -5.708974|  -13.437597|    3.882383|
|          38|  5.1075e+00|  5.6943e-08|  7.6103e-01|  5.0000e-01|  5.0000e-01|  5.0000e-01|   -5.491219|   -5.644697|   -6.123644|   -5.804288|   -5.703102|  -13.431293|    3.938717|
|          39|  5.1195e+00|  5.6330e-08|  7.6103e-01|  5.0000e-01|  5.0000e-01|  5.0000e-01|   -5.478187|   -5.637287|   -6.099981|   -5.788677|   -5.687019|  -13.424885|    3.972676|
|          40|  5.1302e+00|  5.5729e-08|  7.6103e-01|  5.0000e-01|  5.0000e-01|  5.0000e-01|   -5.458441|   -5.630403|   -6.077979|   -5.774093|   -5.662124|  -13.418538|    3.982915|
|          41|  5.1414e+00|  5.5139e-08|  7.6103e-01|  5.0000e-01|  5.0000e-01|  5.0000e-01|   -5.434101|   -5.624336|   -6.058229|   -5.761133|   -5.631222|  -13.412577|    3.968702|
|          42|  5.1514e+00|  5.4560e-08|  7.6103e-01|  5.0000e-01|  5.0000e-01|  5.0000e-01|   -5.407546|   -5.619546|   -6.041238|   -5.750129|   -5.597459|  -13.407114|    3.930196|
|          43|  5.1614e+00|  5.3992e-08|  7.6103e-01|  5.0000e-01|  5.0000e-01|  5.0000e-01|   -5.380887|   -5.616439|   -6.027283|   -5.740999|   -5.563597|  -13.402119|    3.868606|
|          44|  5.1705e+00|  5.3435e-08|  7.6103e-01|  5.0000e-01|  5.0000e-01|  5.0000e-01|   -5.355776|   -5.615248|   -6.016390|   -5.733285|   -5.531787|  -13.396486|    3.786057|
|          45|  5.1789e+00|  5.2889e-08|  7.6103e-01|  5.0000e-01|  5.0000e-01|  5.0000e-01|   -5.333414|   -5.615969|   -6.008428|   -5.726247|   -5.503610|  -13.390060|    3.685027|
|          46|  5.1874e+00|  5.2354e-08|  7.6103e-01|  5.0000e-01|  5.0000e-01|  5.0000e-01|   -5.314176|   -5.618548|   -6.003426|   -5.718929|   -5.479526|  -13.383007|    3.567697|
|          47|  5.1961e+00|  5.1829e-08|  7.6103e-01|  5.0000e-01|  5.0000e-01|  5.0000e-01|   -5.297926|   -5.623208|   -6.001420|   -5.710135|   -5.459333|  -13.375279|    3.435761|
|          48|  5.2041e+00|  5.1316e-08|  7.6103e-01|  5.0000e-01|  5.0000e-01|  5.0000e-01|   -5.284579|   -5.629985|   -6.000955|   -5.698465|   -5.443003|  -13.366722|    3.290654|
|          49|  5.2111e+00|  5.0813e-08|  7.6103e-01|  5.0000e-01|  5.0000e-01|  5.0000e-01|   -5.274298|   -5.637495|   -5.998457|   -5.682912|   -5.430956|  -13.357247|    3.134674|
|          50|  5.2185e+00|  5.0321e-08|  7.6103e-01|  5.0000e-01|  5.0000e-01|  5.0000e-01|   -5.266753|   -5.644047|   -5.991380|   -5.663968|   -5.422873|  -13.346896|    2.971011|
|          51|  5.2274e+00|  4.9840e-08|  7.6103e-01|  5.0000e-01|  5.0000e-01|  5.0000e-01|   -5.261116|   -5.648694|   -5.978708|   -5.643112|   -5.417688|  -13.335826|    2.802867|
|          52|  5.2419e+00|  4.9370e-08|  7.6103e-01|  5.0000e-01|  5.0000e-01|  5.0000e-01|   -5.256509|   -5.650529|   -5.960503|   -5.622055|   -5.414152|  -13.324388|    2.633266|
|          53|  5.2577e+00|  4.8910e-08|  7.6103e-01|  5.0000e-01|  5.0000e-01|  5.0000e-01|   -5.252146|   -5.648557|   -5.937802|   -5.602354|   -5.411009|  -13.313066|    2.465066|
|          54|  5.2688e+00|  4.8460e-08|  7.6103e-01|  5.0000e-01|  5.0000e-01|  5.0000e-01|   -5.247422|   -5.641844|   -5.912309|   -5.585183|   -5.407132|  -13.302219|    2.300996|
|          55|  5.2746e+00|  4.8021e-08|  7.6103e-01|  5.0000e-01|  5.0000e-01|  5.0000e-01|   -5.241989|   -5.629842|   -5.885963|   -5.571246|   -5.401705|  -13.291931|    2.143666|
|          56|  5.2799e+00|  4.7591e-08|  7.6103e-01|  5.0000e-01|  5.0000e-01|  5.0000e-01|   -5.235794|   -5.612686|   -5.860578|   -5.560762|   -5.394376|  -13.282321|    1.995561|
|          57|  5.2859e+00|  4.7172e-08|  7.6103e-01|  5.0000e-01|  5.0000e-01|  5.0000e-01|   -5.229077|   -5.591333|   -5.837648|   -5.553496|   -5.385347|  -13.273368|    1.858997|
|          58|  5.2907e+00|  4.6762e-08|  7.6103e-01|  5.0000e-01|  5.0000e-01|  5.0000e-01|   -5.222307|   -5.567468|   -5.818277|   -5.548808|   -5.375336|  -13.263543|    1.736058|
|          59|  5.2955e+00|  4.6361e-08|  7.6103e-01|  5.0000e-01|  5.0000e-01|  5.0000e-01|   -5.216113|   -5.543292|   -5.803133|   -5.545688|   -5.365470|  -13.251909|    1.628483|
|          60|  5.3003e+00|  4.5970e-08|  7.6103e-01|  5.0000e-01|  5.0000e-01|  5.0000e-01|   -5.211024|   -5.520957|   -5.792388|   -5.542922|   -5.356893|  -13.238491|    1.537618|
|          61|  5.3042e+00|  4.5587e-08|  7.6103e-01|  5.0000e-01|  5.0000e-01|  5.0000e-01|   -5.207254|   -5.502267|   -5.785777|   -5.539354|   -5.350374|  -13.223641|    1.464407|
|          62|  5.3077e+00|  4.5213e-08|  7.6103e-01|  5.0000e-01|  5.0000e-01|  5.0000e-01|   -5.204642|   -5.488586|   -5.782612|   -5.534158|   -5.346133|  -13.208231|    1.409397|
|          63|  5.3113e+00|  4.4848e-08|  7.6103e-01|  5.0000e-01|  5.0000e-01|  5.0000e-01|   -5.202629|   -5.480850|   -5.781837|   -5.527118|   -5.343694|  -13.193243|    1.372748|
|          64|  5.3146e+00|  4.4491e-08|  7.6103e-01|  5.0000e-01|  5.0000e-01|  5.0000e-01|   -5.200381|   -5.479389|   -5.782207|   -5.518706|   -5.342014|  -13.179536|    1.354270|
|          65|  5.3180e+00|  4.4141e-08|  7.6103e-01|  5.0000e-01|  5.0000e-01|  5.0000e-01|   -5.197053|   -5.483907|   -5.782523|   -5.509873|   -5.339753|  -13.167907|    1.353456|
|          66|  5.3228e+00|  4.3800e-08|  7.6103e-01|  5.0000e-01|  5.0000e-01|  5.0000e-01|   -5.192086|   -5.493463|   -5.781931|   -5.501760|   -5.335661|  -13.159141|    1.369513|
|          67|  5.3267e+00|  4.3466e-08|  7.6103e-01|  5.0000e-01|  5.0000e-01|  5.0000e-01|   -5.185431|   -5.506442|   -5.780165|   -5.495414|   -5.329085|  -13.153922|    1.401382|
|          68|  5.3297e+00|  4.3139e-08|  7.6103e-01|  5.0000e-01|  5.0000e-01|  5.0000e-01|   -5.177633|   -5.520650|   -5.777616|   -5.491597|   -5.320327|  -13.152650|    1.447735|
|          69|  5.3336e+00|  4.2819e-08|  7.6103e-01|  5.0000e-01|  5.0000e-01|  5.0000e-01|   -5.169741|   -5.533661|   -5.775154|   -5.490704|   -5.310682|  -13.154589|    1.506969|
|          70|  5.3374e+00|  4.2506e-08|  7.6103e-01|  5.0000e-01|  5.0000e-01|  5.0000e-01|   -5.163062|   -5.543466|   -5.773776|   -5.492745|   -5.302070|  -13.157789|    1.577196|
|          71|  5.3400e+00|  4.2200e-08|  7.6103e-01|  5.0000e-01|  5.0000e-01|  5.0000e-01|   -5.158742|   -5.549182|   -5.774292|   -5.497398|   -5.296325|  -13.161073|    1.656419|
|          72|  5.3426e+00|  4.1900e-08|  7.6103e-01|  5.0000e-01|  5.0000e-01|  5.0000e-01|   -5.157648|   -5.551281|   -5.777121|   -5.504071|   -5.294850|  -13.164011|    1.742785|
|          73|  5.3463e+00|  4.1606e-08|  7.6103e-01|  5.0000e-01|  5.0000e-01|  5.0000e-01|   -5.160287|   -5.551111|   -5.782173|   -5.511961|   -5.298438|  -13.164204|    1.834397|
|          74|  5.3494e+00|  4.1319e-08|  7.6103e-01|  5.0000e-01|  5.0000e-01|  5.0000e-01|   -5.166584|   -5.550245|   -5.788901|   -5.520146|   -5.307000|  -13.160587|    1.929330|
|          75|  5.3522e+00|  4.1037e-08|  7.6103e-01|  5.0000e-01|  5.0000e-01|  5.0000e-01|   -5.175878|   -5.549896|   -5.796431|   -5.527713|   -5.319655|  -13.153702|    2.025521|
|          76|  5.3545e+00|  4.0761e-08|  7.6103e-01|  5.0000e-01|  5.0000e-01|  5.0000e-01|   -5.187026|   -5.550645|   -5.803739|   -5.533959|   -5.334755|  -13.145041|    2.120949|
|          77|  5.3564e+00|  4.0490e-08|  7.6103e-01|  5.0000e-01|  5.0000e-01|  5.0000e-01|   -5.198616|   -5.552519|   -5.809952|   -5.538561|   -5.350109|  -13.136241|    2.213703|
|          78|  5.3590e+00|  4.0224e-08|  7.6103e-01|  5.0000e-01|  5.0000e-01|  5.0000e-01|   -5.209254|   -5.555276|   -5.814617|   -5.541627|   -5.363454|  -13.128444|    2.302006|
|          79|  5.3612e+00|  3.9964e-08|  7.6103e-01|  5.0000e-01|  5.0000e-01|  5.0000e-01|   -5.217896|   -5.558669|   -5.817810|   -5.543653|   -5.373041|  -13.122627|    2.384236|
|          80|  5.3632e+00|  3.9709e-08|  7.6103e-01|  5.0000e-01|  5.0000e-01|  5.0000e-01|   -5.223997|   -5.562380|   -5.820103|   -5.545365|   -5.378128|  -13.119500|    2.458944|
|          81|  5.3655e+00|  3.9459e-08|  7.6103e-01|  5.0000e-01|  5.0000e-01|  5.0000e-01|   -5.227720|   -5.566192|   -5.822434|   -5.547483|   -5.379414|  -13.119589|    2.524866|
|          82|  5.3679e+00|  3.9213e-08|  7.6103e-01|  5.0000e-01|  5.0000e-01|  5.0000e-01|   -5.229951|   -5.570177|   -5.825835|   -5.550536|   -5.378838|  -13.123102|    2.580932|
|          83|  5.3699e+00|  3.8972e-08|  7.6103e-01|  5.0000e-01|  5.0000e-01|  5.0000e-01|   -5.232090|   -5.574669|   -5.831085|   -5.554727|   -5.378947|  -13.128808|    2.626278|
|          84|  5.3721e+00|  3.8735e-08|  7.6103e-01|  5.0000e-01|  5.0000e-01|  5.0000e-01|   -5.235383|   -5.580012|   -5.838488|   -5.559936|   -5.381709|  -13.135076|    2.660261|
|          85|  5.3744e+00|  3.8503e-08|  7.6103e-01|  5.0000e-01|  5.0000e-01|  5.0000e-01|   -5.240586|   -5.586441|   -5.847831|   -5.565799|   -5.388116|  -13.140569|    2.682474|
|          86|  5.3764e+00|  3.8274e-08|  7.6103e-01|  5.0000e-01|  5.0000e-01|  5.0000e-01|   -5.247847|   -5.593909|   -5.858455|   -5.571817|   -5.398157|  -13.144940|    2.692769|
|          87|  5.3783e+00|  3.8050e-08|  7.6103e-01|  5.0000e-01|  5.0000e-01|  5.0000e-01|   -5.256663|   -5.602156|   -5.869427|   -5.577466|   -5.410882|  -13.147850|    2.691289|
|          88|  5.3801e+00|  3.7830e-08|  7.6103e-01|  5.0000e-01|  5.0000e-01|  5.0000e-01|   -5.265984|   -5.610941|   -5.879771|   -5.582331|   -5.424589|  -13.149171|    2.678498|
|          89|  5.3820e+00|  3.7613e-08|  7.6103e-01|  5.0000e-01|  5.0000e-01|  5.0000e-01|   -5.274599|   -5.620019|   -5.888701|   -5.586231|   -5.437336|  -13.149210|    2.655226|
|          90|  5.3843e+00|  3.7401e-08|  7.6103e-01|  5.0000e-01|  5.0000e-01|  5.0000e-01|   -5.281467|   -5.629117|   -5.895772|   -5.589244|   -5.447436|  -13.148585|    2.622677|
|          91|  5.3864e+00|  3.7192e-08|  7.6103e-01|  5.0000e-01|  5.0000e-01|  5.0000e-01|   -5.286006|   -5.637943|   -5.900955|   -5.591682|   -5.453923|  -13.147911|    2.582412|
|          92|  5.3887e+00|  3.6986e-08|  7.6103e-01|  5.0000e-01|  5.0000e-01|  5.0000e-01|   -5.288230|   -5.646177|   -5.904580|   -5.593999|   -5.456786|  -13.147797|    2.536255|
|          93|  5.3902e+00|  3.6784e-08|  7.6103e-01|  5.0000e-01|  5.0000e-01|  5.0000e-01|   -5.288689|   -5.653452|   -5.907220|   -5.596680|   -5.456857|  -13.148736|    2.486131|
|          94|  5.3921e+00|  3.6585e-08|  7.6103e-01|  5.0000e-01|  5.0000e-01|  5.0000e-01|   -5.288275|   -5.659342|   -5.909548|   -5.600138|   -5.455466|  -13.151046|    2.434003|
|          95|  5.3944e+00|  3.6390e-08|  7.6103e-01|  5.0000e-01|  5.0000e-01|  5.0000e-01|   -5.287993|   -5.663462|   -5.912202|   -5.604632|   -5.454083|  -13.154822|    2.381814|
|          96|  5.3963e+00|  3.6197e-08|  7.6103e-01|  5.0000e-01|  5.0000e-01|  5.0000e-01|   -5.288810|   -5.665589|   -5.915693|   -5.610229|   -5.454074|  -13.160018|    2.331419|
|          97|  5.3984e+00|  3.6008e-08|  7.6103e-01|  5.0000e-01|  5.0000e-01|  5.0000e-01|   -5.291506|   -5.665744|   -5.920328|   -5.616770|   -5.456504|  -13.166396|    2.284520|
|          98|  5.4001e+00|  3.5822e-08|  7.6103e-01|  5.0000e-01|  5.0000e-01|  5.0000e-01|   -5.296557|   -5.664249|   -5.926172|   -5.623892|   -5.462023|  -13.173222|    2.242605|
|          99|  5.4020e+00|  3.5638e-08|  7.6103e-01|  5.0000e-01|  5.0000e-01|  5.0000e-01|   -5.304038|   -5.661723|   -5.933040|   -5.631052|   -5.470766|  -13.179435|    2.206921|
|         100|  5.4039e+00|  3.5458e-08|  7.6103e-01|  5.0000e-01|  5.0000e-01|  5.0000e-01|   -5.313552|   -5.658943|   -5.940540|   -5.637626|   -5.482276|  -13.184083|    2.178454|
|         101|  5.4059e+00|  3.5280e-08|  7.6103e-01|  5.0000e-01|  5.0000e-01|  5.0000e-01|   -5.324274|   -5.656704|   -5.948143|   -5.643037|   -5.495567|  -13.186588|    2.157925|
|         102|  5.4078e+00|  3.5105e-08|  7.6103e-01|  5.0000e-01|  5.0000e-01|  5.0000e-01|   -5.335084|   -5.655666|   -5.955289|   -5.646893|   -5.509262|  -13.186860|    2.145783|
|         103|  5.4099e+00|  3.4932e-08|  7.6103e-01|  5.0000e-01|  5.0000e-01|  5.0000e-01|   -5.344716|   -5.656280|   -5.961461|   -5.649066|   -5.521729|  -13.185166|    2.142209|
|         104|  5.4116e+00|  3.4763e-08|  7.6103e-01|  5.0000e-01|  5.0000e-01|  5.0000e-01|   -5.351993|   -5.658769|   -5.966290|   -5.649711|   -5.531360|  -13.182063|    2.147128|
|         105|  5.4130e+00|  3.4595e-08|  7.6103e-01|  5.0000e-01|  5.0000e-01|  5.0000e-01|   -5.356078|   -5.663130|   -5.969610|   -5.649214|   -5.536938|  -13.178181|    2.160208|
|         106|  5.4148e+00|  3.4430e-08|  7.6103e-01|  5.0000e-01|  5.0000e-01|  5.0000e-01|   -5.356705|   -5.669158|   -5.971506|   -5.648094|   -5.538021|  -13.174125|    2.180874|
|         107|  5.4168e+00|  3.4268e-08|  7.6103e-01|  5.0000e-01|  5.0000e-01|  5.0000e-01|   -5.354229|   -5.676463|   -5.972249|   -5.646870|   -5.535053|  -13.170329|    2.208311|
|         108|  5.4182e+00|  3.4108e-08|  7.6103e-01|  5.0000e-01|  5.0000e-01|  5.0000e-01|   -5.349516|   -5.684494|   -5.972250|   -5.645979|   -5.529218|  -13.167091|    2.241471|
|         109|  5.4199e+00|  3.3950e-08|  7.6103e-01|  5.0000e-01|  5.0000e-01|  5.0000e-01|   -5.343670|   -5.692552|   -5.971916|   -5.645687|   -5.522025|  -13.164589|    2.279103|
|         110|  5.4211e+00|  3.3794e-08|  7.6103e-01|  5.0000e-01|  5.0000e-01|  5.0000e-01|   -5.337776|   -5.699872|   -5.971597|   -5.646089|   -5.514919|  -13.162884|    2.319888|
|         111|  5.4223e+00|  3.3641e-08|  7.6103e-01|  5.0000e-01|  5.0000e-01|  5.0000e-01|   -5.332706|   -5.705735|   -5.971511|   -5.647117|   -5.509010|  -13.161945|    2.362496|
|         112|  5.4240e+00|  3.3489e-08|  7.6103e-01|  5.0000e-01|  5.0000e-01|  5.0000e-01|   -5.329063|   -5.709558|   -5.971739|   -5.648571|   -5.505017|  -13.161656|    2.405618|
|         113|  5.4256e+00|  3.3340e-08|  7.6103e-01|  5.0000e-01|  5.0000e-01|  5.0000e-01|   -5.327184|   -5.710986|   -5.972240|   -5.650173|   -5.503299|  -13.161899|    2.447994|
|         114|  5.4271e+00|  3.3193e-08|  7.6103e-01|  5.0000e-01|  5.0000e-01|  5.0000e-01|   -5.327199|   -5.709988|   -5.972868|   -5.651619|   -5.503954|  -13.162580|    2.488452|
|         115|  5.4283e+00|  3.3048e-08|  7.6103e-01|  5.0000e-01|  5.0000e-01|  5.0000e-01|   -5.329039|   -5.706866|   -5.973423|   -5.652624|   -5.506841|  -13.163433|    2.525934|
|         116|  5.4294e+00|  3.2904e-08|  7.6103e-01|  5.0000e-01|  5.0000e-01|  5.0000e-01|   -5.332418|   -5.702213|   -5.973667|   -5.652951|   -5.511567|  -13.163769|    2.559511|
|         117|  5.4300e+00|  3.2763e-08|  7.6103e-01|  5.0000e-01|  5.0000e-01|  5.0000e-01|   -5.336798|   -5.696773|   -5.973381|   -5.652438|   -5.517429|  -13.162938|    2.588402|
|         118|  5.4319e+00|  3.2623e-08|  7.6103e-01|  5.0000e-01|  5.0000e-01|  5.0000e-01|   -5.341460|   -5.691356|   -5.972414|   -5.651004|   -5.523540|  -13.160470|    2.611979|
|         119|  5.4337e+00|  3.2486e-08|  7.6103e-01|  5.0000e-01|  5.0000e-01|  5.0000e-01|   -5.345603|   -5.686670|   -5.970662|   -5.648646|   -5.528960|  -13.156183|    2.629782|
|         120|  5.4351e+00|  3.2350e-08|  7.6103e-01|  5.0000e-01|  5.0000e-01|  5.0000e-01|   -5.348457|   -5.683231|   -5.968091|   -5.645462|   -5.532780|  -13.150151|    2.641528|
|         121|  5.4363e+00|  3.2216e-08|  7.6103e-01|  5.0000e-01|  5.0000e-01|  5.0000e-01|   -5.349372|   -5.681371|   -5.964717|   -5.641633|   -5.534227|  -13.142631|    2.647111|
|         122|  5.4377e+00|  3.2083e-08|  7.6103e-01|  5.0000e-01|  5.0000e-01|  5.0000e-01|   -5.347955|   -5.681250|   -5.960632|   -5.637416|   -5.532822|  -13.134073|    2.646608|
|         123|  5.4388e+00|  3.1952e-08|  7.6103e-01|  5.0000e-01|  5.0000e-01|  5.0000e-01|   -5.344146|   -5.682856|   -5.955987|   -5.633121|   -5.528472|  -13.124984|    2.640270|
|         124|  5.4400e+00|  3.1823e-08|  7.6103e-01|  5.0000e-01|  5.0000e-01|  5.0000e-01|   -5.338236|   -5.685989|   -5.951001|   -5.629065|   -5.521497|  -13.115953|    2.628519|
|         125|  5.4410e+00|  3.1696e-08|  7.6103e-01|  5.0000e-01|  5.0000e-01|  5.0000e-01|   -5.330819|   -5.690242|   -5.945947|   -5.625541|   -5.512587|  -13.107478|    2.611931|
|         126|  5.4421e+00|  3.1570e-08|  7.6103e-01|  5.0000e-01|  5.0000e-01|  5.0000e-01|   -5.322667|   -5.695007|   -5.941127|   -5.622761|   -5.502654|  -13.100038|    2.591220|
|         127|  5.4430e+00|  3.1445e-08|  7.6103e-01|  5.0000e-01|  5.0000e-01|  5.0000e-01|   -5.314609|   -5.699525|   -5.936851|   -5.620844|   -5.492703|  -13.094100|    2.567214|
|         128|  5.4437e+00|  3.1322e-08|  7.6103e-01|  5.0000e-01|  5.0000e-01|  5.0000e-01|   -5.307425|   -5.703021|   -5.933402|   -5.619818|   -5.483714|  -13.090062|    2.540815|
|         129|  5.4448e+00|  3.1201e-08|  7.6103e-01|  5.0000e-01|  5.0000e-01|  5.0000e-01|   -5.301778|   -5.704872|   -5.930984|   -5.619603|   -5.476551|  -13.088866|    2.512950|
|         130|  5.4458e+00|  3.1081e-08|  7.6103e-01|  5.0000e-01|  5.0000e-01|  5.0000e-01|   -5.298218|   -5.704778|   -5.929696|   -5.620049|   -5.471971|  -13.090763|    2.484551|
|         131|  5.4473e+00|  3.0962e-08|  7.6103e-01|  5.0000e-01|  5.0000e-01|  5.0000e-01|   -5.297062|   -5.702851|   -5.929479|   -5.620944|   -5.470454|  -13.094710|    2.456525|
|         132|  5.4484e+00|  3.0845e-08|  7.6103e-01|  5.0000e-01|  5.0000e-01|  5.0000e-01|   -5.298304|   -5.699550|   -5.930128|   -5.622040|   -5.472061|  -13.099501|    2.429724|
|         133|  5.4493e+00|  3.0730e-08|  7.6103e-01|  5.0000e-01|  5.0000e-01|  5.0000e-01|   -5.301682|   -5.695514|   -5.931332|   -5.623105|   -5.476485|  -13.103868|    2.404927|
|         134|  5.4502e+00|  3.0615e-08|  7.6103e-01|  5.0000e-01|  5.0000e-01|  5.0000e-01|   -5.306611|   -5.691488|   -5.932717|   -5.623907|   -5.482986|  -13.106793|    2.382816|
|         135|  5.4510e+00|  3.0502e-08|  7.6103e-01|  5.0000e-01|  5.0000e-01|  5.0000e-01|   -5.312261|   -5.688184|   -5.933915|   -5.624281|   -5.490527|  -13.107611|    2.363964|
|         136|  5.4518e+00|  3.0390e-08|  7.6103e-01|  5.0000e-01|  5.0000e-01|  5.0000e-01|   -5.317689|   -5.686070|   -5.934612|   -5.624150|   -5.497870|  -13.106240|    2.348821|
|         137|  5.4526e+00|  3.0280e-08|  7.6103e-01|  5.0000e-01|  5.0000e-01|  5.0000e-01|   -5.321987|   -5.685375|   -5.934620|   -5.623550|   -5.503762|  -13.102855|    2.337712|
|         138|  5.4534e+00|  3.0171e-08|  7.6103e-01|  5.0000e-01|  5.0000e-01|  5.0000e-01|   -5.324448|   -5.686109|   -5.933897|   -5.622610|   -5.507172|  -13.097934|    2.330834|
|         139|  5.4544e+00|  3.0062e-08|  7.6103e-01|  5.0000e-01|  5.0000e-01|  5.0000e-01|   -5.324714|   -5.688101|   -5.932561|   -5.621532|   -5.507533|  -13.092147|    2.328261|
|         140|  5.4558e+00|  2.9956e-08|  7.6103e-01|  5.0000e-01|  5.0000e-01|  5.0000e-01|   -5.322860|   -5.691023|   -5.930866|   -5.620554|   -5.504894|  -13.086177|    2.329940|
|         141|  5.4569e+00|  2.9850e-08|  7.6103e-01|  5.0000e-01|  5.0000e-01|  5.0000e-01|   -5.319351|   -5.694414|   -5.929146|   -5.619902|   -5.499870|  -13.080779|    2.335707|
|         142|  5.4574e+00|  2.9745e-08|  7.6103e-01|  5.0000e-01|  5.0000e-01|  5.0000e-01|   -5.314939|   -5.697753|   -5.927781|   -5.619759|   -5.493527|  -13.076506|    2.345288|
|         143|  5.4581e+00|  2.9642e-08|  7.6103e-01|  5.0000e-01|  5.0000e-01|  5.0000e-01|   -5.310496|   -5.700562|   -5.927104|   -5.620218|   -5.487098|  -13.073875|    2.358316|
|         144|  5.4586e+00|  2.9540e-08|  7.6103e-01|  5.0000e-01|  5.0000e-01|  5.0000e-01|   -5.306861|   -5.702506|   -5.927349|   -5.621274|   -5.481759|  -13.073515|    2.374339|
|         145|  5.4590e+00|  2.9439e-08|  7.6103e-01|  5.0000e-01|  5.0000e-01|  5.0000e-01|   -5.304732|   -5.703452|   -5.928610|   -5.622827|   -5.478471|  -13.076060|    2.392837|
|         146|  5.4600e+00|  2.9339e-08|  7.6103e-01|  5.0000e-01|  5.0000e-01|  5.0000e-01|   -5.304584|   -5.703499|   -5.930782|   -5.624681|   -5.477903|  -13.080853|    2.413236|
|         147|  5.4611e+00|  2.9240e-08|  7.6103e-01|  5.0000e-01|  5.0000e-01|  5.0000e-01|   -5.306504|   -5.702887|   -5.933587|   -5.626595|   -5.480187|  -13.086783|    2.434929|
|         148|  5.4620e+00|  2.9142e-08|  7.6103e-01|  5.0000e-01|  5.0000e-01|  5.0000e-01|   -5.310232|   -5.701928|   -5.936627|   -5.628317|   -5.484975|  -13.092665|    2.457301|
|         149|  5.4627e+00|  2.9045e-08|  7.6103e-01|  5.0000e-01|  5.0000e-01|  5.0000e-01|   -5.315166|   -5.700999|   -5.939456|   -5.629606|   -5.491470|  -13.097419|    2.479748|
|         150|  5.4630e+00|  2.8949e-08|  7.6103e-01|  5.0000e-01|  5.0000e-01|  5.0000e-01|   -5.320484|   -5.700494|   -5.941680|   -5.630298|   -5.498607|  -13.100228|    2.501689|
+-----------------------------------------------------------------------+
|        File Writing Summary       |              Filename             |
+-----------------------------------------------------------------------+
|SU2 binary restart                 |restart_flow.dat                   |
|Paraview                           |flow.vtu                           |
|Paraview surface                   |surface_flow.vtu                   |
+-----------------------------------------------------------------------+
+-------------------------------------------------------------------------------------------------------------------------------------------------------------------------------------+
|  Inner_Iter|   Time(sec)|      Min DT|      Max DT|     Min CFL|     Max CFL|     Avg CFL|    rms[Rho]|   rms[RhoU]|   rms[RhoV]|   rms[RhoW]|   rms[RhoE]|     rms[nu]|          CD|
+-------------------------------------------------------------------------------------------------------------------------------------------------------------------------------------+
|         151|  5.5918e+00|  2.8854e-08|  7.6103e-01|  5.0000e-01|  5.0000e-01|  5.0000e-01|   -5.325298|   -5.700668|   -5.942998|   -5.630324|   -5.505208|  -13.100736|    2.522579|
|         152|  5.5920e+00|  2.8760e-08|  7.6103e-01|  5.0000e-01|  5.0000e-01|  5.0000e-01|   -5.328812|   -5.701621|   -5.943273|   -5.629725|   -5.510173|  -13.098970|    2.541919|
|         153|  5.5919e+00|  2.8667e-08|  7.6103e-01|  5.0000e-01|  5.0000e-01|  5.0000e-01|   -5.330456|   -5.703290|   -5.942529|   -5.628630|   -5.512679|  -13.095326|    2.559265|
|         154|  5.5922e+00|  2.8575e-08|  7.6103e-01|  5.0000e-01|  5.0000e-01|  5.0000e-01|   -5.330014|   -5.705480|   -5.940947|   -5.627249|   -5.512364|  -13.090428|    2.574242|
|         155|  5.5927e+00|  2.8484e-08|  7.6103e-01|  5.0000e-01|  5.0000e-01|  5.0000e-01|   -5.327659|   -5.707889|   -5.938827|   -5.625828|   -5.509407|  -13.084945|    2.586550|
|         156|  5.5931e+00|  2.8394e-08|  7.6103e-01|  5.0000e-01|  5.0000e-01|  5.0000e-01|   -5.323883|   -5.710119|   -5.936521|   -5.624596|   -5.504430|  -13.079583|    2.595971|
|         157|  5.5930e+00|  2.8305e-08|  7.6103e-01|  5.0000e-01|  5.0000e-01|  5.0000e-01|   -5.319388|   -5.711748|   -5.934391|   -5.623743|   -5.498376|  -13.074861|    2.602370|
|         158|  5.5930e+00|  2.8216e-08|  7.6103e-01|  5.0000e-01|  5.0000e-01|  5.0000e-01|   -5.314933|   -5.712427|   -5.932739|   -5.623361|   -5.492277|  -13.071231|    2.605694|
|         159|  5.5931e+00|  2.8129e-08|  7.6103e-01|  5.0000e-01|  5.0000e-01|  5.0000e-01|   -5.311222|   -5.711965|   -5.931768|   -5.623452|   -5.487090|  -13.069043|    2.605973|
|         160|  5.5930e+00|  2.8042e-08|  7.6103e-01|  5.0000e-01|  5.0000e-01|  5.0000e-01|   -5.308799|   -5.710363|   -5.931550|   -5.623922|   -5.483560|  -13.069038|    2.603311|
|         161|  5.5931e+00|  2.7956e-08|  7.6103e-01|  5.0000e-01|  5.0000e-01|  5.0000e-01|   -5.308045|   -5.707843|   -5.932006|   -5.624595|   -5.482235|  -13.071285|    2.597884|
|         162|  5.5934e+00|  2.7871e-08|  7.6103e-01|  5.0000e-01|  5.0000e-01|  5.0000e-01|   -5.309040|   -5.704764|   -5.932906|   -5.625248|   -5.483269|  -13.074914|    2.589933|
|         163|  5.5934e+00|  2.7787e-08|  7.6103e-01|  5.0000e-01|  5.0000e-01|  5.0000e-01|   -5.311526|   -5.701533|   -5.933920|   -5.625641|   -5.486358|  -13.078812|    2.579751|
|         164|  5.5931e+00|  2.7703e-08|  7.6103e-01|  5.0000e-01|  5.0000e-01|  5.0000e-01|   -5.314951|   -5.698572|   -5.934683|   -5.625554|   -5.490801|  -13.081967|    2.567675|
|         165|  5.5932e+00|  2.7621e-08|  7.6103e-01|  5.0000e-01|  5.0000e-01|  5.0000e-01|   -5.318565|   -5.696297|   -5.934878|   -5.624834|   -5.495649|  -13.083504|    2.554076|
|         166|  5.5933e+00|  2.7539e-08|  7.6103e-01|  5.0000e-01|  5.0000e-01|  5.0000e-01|   -5.321553|   -5.694993|   -5.934267|   -5.623413|   -5.499859|  -13.082961|    2.539347|
|         167|  5.5930e+00|  2.7458e-08|  7.6103e-01|  5.0000e-01|  5.0000e-01|  5.0000e-01|   -5.323191|   -5.694779|   -5.932746|   -5.621338|   -5.502465|  -13.080253|    2.523890|
|         168|  5.5927e+00|  2.7378e-08|  7.6103e-01|  5.0000e-01|  5.0000e-01|  5.0000e-01|   -5.322981|   -5.695611|   -5.930342|   -5.618768|   -5.502752|  -13.075624|    2.508101|
|         169|  5.5923e+00|  2.7298e-08|  7.6103e-01|  5.0000e-01|  5.0000e-01|  5.0000e-01|   -5.320751|   -5.697295|   -5.927216|   -5.615949|   -5.500416|  -13.069545|    2.492364|
|         170|  5.5918e+00|  2.7219e-08|  7.6103e-01|  5.0000e-01|  5.0000e-01|  5.0000e-01|   -5.316694|   -5.699504|   -5.923634|   -5.613171|   -5.495633|  -13.062610|    2.477041|
|         171|  5.5915e+00|  2.7141e-08|  7.6103e-01|  5.0000e-01|  5.0000e-01|  5.0000e-01|   -5.311313|   -5.701796|   -5.919917|   -5.610723|   -5.488990|  -13.055447|    2.462465|
|         172|  5.5913e+00|  2.7064e-08|  7.6103e-01|  5.0000e-01|  5.0000e-01|  5.0000e-01|   -5.305295|   -5.703636|   -5.916403|   -5.608837|   -5.481335|  -13.048612|    2.448938|
|         173|  5.5911e+00|  2.6987e-08|  7.6103e-01|  5.0000e-01|  5.0000e-01|  5.0000e-01|   -5.299383|   -5.704505|   -5.913401|   -5.607651|   -5.473627|  -13.042650|    2.436727|
|         174|  5.5911e+00|  2.6911e-08|  7.6103e-01|  5.0000e-01|  5.0000e-01|  5.0000e-01|   -5.294284|   -5.704030|   -5.911154|   -5.607193|   -5.466798|  -13.038142|    2.426055|
|         175|  5.5908e+00|  2.6836e-08|  7.6103e-01|  5.0000e-01|  5.0000e-01|  5.0000e-01|   -5.290583|   -5.702086|   -5.909807|   -5.607377|   -5.461648|  -13.036310|    2.417104|
|         176|  5.5904e+00|  2.6761e-08|  7.6103e-01|  5.0000e-01|  5.0000e-01|  5.0000e-01|   -5.288726|   -5.698851|   -5.909364|   -5.608017|   -5.458828|  -13.037456|    2.410011|
|         177|  5.5903e+00|  2.6687e-08|  7.6103e-01|  5.0000e-01|  5.0000e-01|  5.0000e-01|   -5.288891|   -5.694744|   -5.909678|   -5.608856|   -5.458656|  -13.040806|    2.404865|
|         178|  5.5900e+00|  2.6614e-08|  7.6103e-01|  5.0000e-01|  5.0000e-01|  5.0000e-01|   -5.290922|   -5.690300|   -5.910471|   -5.609607|   -5.461006|  -13.045297|    2.401712|
|         179|  5.5900e+00|  2.6541e-08|  7.6103e-01|  5.0000e-01|  5.0000e-01|  5.0000e-01|   -5.294381|   -5.686073|   -5.911392|   -5.609995|   -5.465358|  -13.049741|    2.400554|
|         180|  5.5900e+00|  2.6469e-08|  7.6103e-01|  5.0000e-01|  5.0000e-01|  5.0000e-01|   -5.298557|   -5.682601|   -5.912081|   -5.609799|   -5.470831|  -13.053023|    2.401352|
|         181|  5.5899e+00|  2.6397e-08|  7.6103e-01|  5.0000e-01|  5.0000e-01|  5.0000e-01|   -5.302585|   -5.680299|   -5.912225|   -5.608903|   -5.476323|  -13.054408|    2.404027|
|         182|  5.5897e+00|  2.6327e-08|  7.6103e-01|  5.0000e-01|  5.0000e-01|  5.0000e-01|   -5.305614|   -5.679361|   -5.911617|   -5.607332|   -5.480692|  -13.053525|    2.408462|
|         183|  5.5895e+00|  2.6256e-08|  7.6103e-01|  5.0000e-01|  5.0000e-01|  5.0000e-01|   -5.306954|   -5.679765|   -5.910190|   -5.605245|   -5.482948|  -13.050453|    2.414510|
|         184|  5.5894e+00|  2.6187e-08|  7.6103e-01|  5.0000e-01|  5.0000e-01|  5.0000e-01|   -5.306231|   -5.681299|   -5.908033|   -5.602904|   -5.482477|  -13.045568|    2.421991|
|         185|  5.5893e+00|  2.6118e-08|  7.6103e-01|  5.0000e-01|  5.0000e-01|  5.0000e-01|   -5.303475|   -5.683600|   -5.905371|   -5.600624|   -5.479211|  -13.039455|    2.430701|
|         186|  5.5894e+00|  2.6049e-08|  7.6103e-01|  5.0000e-01|  5.0000e-01|  5.0000e-01|   -5.299101|   -5.686179|   -5.902528|   -5.598719|   -5.473616|  -13.032796|    2.440417|
|         187|  5.5895e+00|  2.5981e-08|  7.6103e-01|  5.0000e-01|  5.0000e-01|  5.0000e-01|   -5.293792|   -5.688466|   -5.899872|   -5.597435|   -5.466566|  -13.026304|    2.450897|
|         188|  5.5893e+00|  2.5914e-08|  7.6103e-01|  5.0000e-01|  5.0000e-01|  5.0000e-01|   -5.288369|   -5.689928|   -5.897762|   -5.596912|   -5.459167|  -13.020682|    2.461891|
|         189|  5.5890e+00|  2.5847e-08|  7.6103e-01|  5.0000e-01|  5.0000e-01|  5.0000e-01|   -5.283653|   -5.690214|   -5.896488|   -5.597168|   -5.452561|  -13.016815|    2.473146|
|         190|  5.5889e+00|  2.5781e-08|  7.6103e-01|  5.0000e-01|  5.0000e-01|  5.0000e-01|   -5.280355|   -5.689234|   -5.896218|   -5.598094|   -5.447748|  -13.016028|    2.484410|
|         191|  5.5886e+00|  2.5715e-08|  7.6103e-01|  5.0000e-01|  5.0000e-01|  5.0000e-01|   -5.279004|   -5.687181|   -5.896950|   -5.599472|   -5.445505|  -13.018347|    2.495440|
|         192|  5.5885e+00|  2.5650e-08|  7.6103e-01|  5.0000e-01|  5.0000e-01|  5.0000e-01|   -5.279796|   -5.684443|   -5.898508|   -5.601010|   -5.446173|  -13.022945|    2.506002|
|         193|  5.5887e+00|  2.5586e-08|  7.6103e-01|  5.0000e-01|  5.0000e-01|  5.0000e-01|   -5.282569|   -5.681470|   -5.900563|   -5.602390|   -5.449600|  -13.028720|    2.515877|
|         194|  5.5887e+00|  2.5522e-08|  7.6103e-01|  5.0000e-01|  5.0000e-01|  5.0000e-01|   -5.286840|   -5.678711|   -5.902708|   -5.603324|   -5.455185|  -13.034423|    2.524866|
|         195|  5.5885e+00|  2.5458e-08|  7.6103e-01|  5.0000e-01|  5.0000e-01|  5.0000e-01|   -5.291833|   -5.676585|   -5.904536|   -5.603604|   -5.461936|  -13.039037|    2.532795|
|         196|  5.5880e+00|  2.5395e-08|  7.6103e-01|  5.0000e-01|  5.0000e-01|  5.0000e-01|   -5.296639|   -5.675392|   -5.905707|   -5.603153|   -5.468657|  -13.041805|    2.539518|
|         197|  5.5879e+00|  2.5332e-08|  7.6103e-01|  5.0000e-01|  5.0000e-01|  5.0000e-01|   -5.300388|   -5.675252|   -5.906017|   -5.602037|   -5.474139|  -13.042290|    2.544918|
|         198|  5.5879e+00|  2.5270e-08|  7.6103e-01|  5.0000e-01|  5.0000e-01|  5.0000e-01|   -5.302403|   -5.676108|   -5.905419|   -5.600443|   -5.477376|  -13.040530|    2.548911|
|         199|  5.5887e+00|  2.5209e-08|  7.6103e-01|  5.0000e-01|  5.0000e-01|  5.0000e-01|   -5.302347|   -5.677755|   -5.904037|   -5.598644|   -5.477793|  -13.036891|    2.551445|
|         200|  5.5887e+00|  2.5148e-08|  7.6103e-01|  5.0000e-01|  5.0000e-01|  5.0000e-01|   -5.300288|   -5.679870|   -5.902128|   -5.596945|   -5.475379|  -13.031956|    2.552503|
|         201|  5.5887e+00|  2.5087e-08|  7.6103e-01|  5.0000e-01|  5.0000e-01|  5.0000e-01|   -5.296657|   -5.682038|   -5.900034|   -5.595616|   -5.470650|  -13.026417|    2.552099|
|         202|  5.5885e+00|  2.5027e-08|  7.6103e-01|  5.0000e-01|  5.0000e-01|  5.0000e-01|   -5.292140|   -5.683787|   -5.898123|   -5.594851|   -5.464522|  -13.021009|    2.550280|
|         203|  5.5882e+00|  2.4967e-08|  7.6103e-01|  5.0000e-01|  5.0000e-01|  5.0000e-01|   -5.287548|   -5.684727|   -5.896731|   -5.594737|   -5.458127|  -13.016396|    2.547125|
|         204|  5.5881e+00|  2.4908e-08|  7.6103e-01|  5.0000e-01|  5.0000e-01|  5.0000e-01|   -5.283669|   -5.684635|   -5.896103|   -5.595238|   -5.452574|  -13.013379|    2.542738|
|         205|  5.5880e+00|  2.4849e-08|  7.6103e-01|  5.0000e-01|  5.0000e-01|  5.0000e-01|   -5.281151|   -5.683503|   -5.896343|   -5.596206|   -5.448785|  -13.013055|    2.537251|
|         206|  5.5879e+00|  2.4791e-08|  7.6103e-01|  5.0000e-01|  5.0000e-01|  5.0000e-01|   -5.280444|   -5.681548|   -5.897392|   -5.597405|   -5.447423|  -13.015356|    2.530818|
|         207|  5.5878e+00|  2.4733e-08|  7.6103e-01|  5.0000e-01|  5.0000e-01|  5.0000e-01|   -5.281647|   -5.679100|   -5.899025|   -5.598552|   -5.448688|  -13.019524|    2.523609|
|         208|  5.5877e+00|  2.4676e-08|  7.6103e-01|  5.0000e-01|  5.0000e-01|  5.0000e-01|   -5.284515|   -5.676519|   -5.900900|   -5.599374|   -5.452300|  -13.024565|    2.515810|
|         209|  5.5878e+00|  2.4619e-08|  7.6103e-01|  5.0000e-01|  5.0000e-01|  5.0000e-01|   -5.288500|   -5.674173|   -5.902639|   -5.599657|   -5.457570|  -13.029439|    2.507617|
|         210|  5.5876e+00|  2.4562e-08|  7.6103e-01|  5.0000e-01|  5.0000e-01|  5.0000e-01|   -5.292832|   -5.672398|   -5.903891|   -5.599283|   -5.463504|  -13.033236|    2.499225|
|         211|  5.5873e+00|  2.4506e-08|  7.6103e-01|  5.0000e-01|  5.0000e-01|  5.0000e-01|   -5.296684|   -5.671427|   -5.904408|   -5.598259|   -5.469009|  -13.035273|    2.490832|
|         212|  5.5870e+00|  2.4450e-08|  7.6103e-01|  5.0000e-01|  5.0000e-01|  5.0000e-01|   -5.299323|   -5.671342|   -5.904069|   -5.596714|   -5.473059|  -13.035226|    2.482629|
|         213|  5.5869e+00|  2.4395e-08|  7.6103e-01|  5.0000e-01|  5.0000e-01|  5.0000e-01|   -5.300235|   -5.672073|   -5.902902|   -5.594859|   -5.474883|  -13.033192|    2.474799|
|         214|  5.5871e+00|  2.4340e-08|  7.6103e-01|  5.0000e-01|  5.0000e-01|  5.0000e-01|   -5.299237|   -5.673423|   -5.901071|   -5.592957|   -5.474134|  -13.029484|    2.467512|
|         215|  5.5870e+00|  2.4285e-08|  7.6103e-01|  5.0000e-01|  5.0000e-01|  5.0000e-01|   -5.296496|   -5.675096|   -5.898840|   -5.591270|   -5.470952|  -13.024643|    2.460922|
|         216|  5.5868e+00|  2.4231e-08|  7.6103e-01|  5.0000e-01|  5.0000e-01|  5.0000e-01|   -5.292475|   -5.676711|   -5.896520|   -5.590007|   -5.465889|  -13.019309|    2.455165|
|         217|  5.5866e+00|  2.4177e-08|  7.6103e-01|  5.0000e-01|  5.0000e-01|  5.0000e-01|   -5.287820|   -5.677848|   -5.894431|   -5.589304|   -5.459795|  -13.014076|    2.450352|
|         218|  5.5865e+00|  2.4124e-08|  7.6103e-01|  5.0000e-01|  5.0000e-01|  5.0000e-01|   -5.283257|   -5.678155|   -5.892851|   -5.589191|   -5.453646|  -13.009475|    2.446571|
|         219|  5.5864e+00|  2.4071e-08|  7.6103e-01|  5.0000e-01|  5.0000e-01|  5.0000e-01|   -5.279453|   -5.677431|   -5.891966|   -5.589592|   -5.448365|  -13.006083|    2.443886|
|         220|  5.5863e+00|  2.4018e-08|  7.6103e-01|  5.0000e-01|  5.0000e-01|  5.0000e-01|   -5.276944|   -5.675666|   -5.891849|   -5.590339|   -5.444703|  -13.004889|    2.442332|
|         221|  5.5861e+00|  2.3966e-08|  7.6103e-01|  5.0000e-01|  5.0000e-01|  5.0000e-01|   -5.276094|   -5.673062|   -5.892434|   -5.591203|   -5.443205|  -13.006058|    2.441918|
|         222|  5.5860e+00|  2.3914e-08|  7.6103e-01|  5.0000e-01|  5.0000e-01|  5.0000e-01|   -5.276983|   -5.669947|   -5.893517|   -5.591935|   -5.444046|  -13.009047|    2.442627|
|         223|  5.5862e+00|  2.3863e-08|  7.6103e-01|  5.0000e-01|  5.0000e-01|  5.0000e-01|   -5.279381|   -5.666691|   -5.894805|   -5.592318|   -5.446982|  -13.012992|    2.444415|
|         224|  5.5863e+00|  2.3811e-08|  7.6103e-01|  5.0000e-01|  5.0000e-01|  5.0000e-01|   -5.282797|   -5.663676|   -5.895972|   -5.592198|   -5.451408|  -13.016940|    2.447213|
|         225|  5.5861e+00|  2.3761e-08|  7.6103e-01|  5.0000e-01|  5.0000e-01|  5.0000e-01|   -5.286546|   -5.661253|   -5.896722|   -5.591511|   -5.456453|  -13.020080|    2.450930|
|         226|  5.5861e+00|  2.3710e-08|  7.6103e-01|  5.0000e-01|  5.0000e-01|  5.0000e-01|   -5.289880|   -5.659675|   -5.896846|   -5.590300|   -5.461143|  -13.021755|    2.455454|
|         227|  5.5860e+00|  2.3660e-08|  7.6103e-01|  5.0000e-01|  5.0000e-01|  5.0000e-01|   -5.292126|   -5.659048|   -5.896243|   -5.588693|   -5.464555|  -13.021645|    2.460656|
|         228|  5.5859e+00|  2.3610e-08|  7.6103e-01|  5.0000e-01|  5.0000e-01|  5.0000e-01|   -5.292803|   -5.659324|   -5.894937|   -5.586889|   -5.465988|  -13.019724|    2.466391|
|         229|  5.5857e+00|  2.3561e-08|  7.6103e-01|  5.0000e-01|  5.0000e-01|  5.0000e-01|   -5.291720|   -5.660321|   -5.893069|   -5.585113|   -5.465100|  -13.016200|    2.472503|
|         230|  5.5854e+00|  2.3512e-08|  7.6103e-01|  5.0000e-01|  5.0000e-01|  5.0000e-01|   -5.289000|   -5.661753|   -5.890865|   -5.583586|   -5.461973|  -13.011530|    2.478832|
|         231|  5.5852e+00|  2.3463e-08|  7.6103e-01|  5.0000e-01|  5.0000e-01|  5.0000e-01|   -5.285041|   -5.663253|   -5.888602|   -5.582485|   -5.457064|  -13.006243|    2.485214|
|         232|  5.5851e+00|  2.3415e-08|  7.6103e-01|  5.0000e-01|  5.0000e-01|  5.0000e-01|   -5.280425|   -5.664389|   -5.886565|   -5.581921|   -5.451109|  -13.000859|    2.491488|
|         233|  5.5851e+00|  2.3366e-08|  7.6103e-01|  5.0000e-01|  5.0000e-01|  5.0000e-01|   -5.275818|   -5.664779|   -5.885014|   -5.581906|   -5.444988|  -12.995882|    2.497496|
|         234|  5.5851e+00|  2.3319e-08|  7.6103e-01|  5.0000e-01|  5.0000e-01|  5.0000e-01|   -5.271864|   -5.664170|   -5.884135|   -5.582363|   -5.439574|  -12.991880|    2.503093|
|         235|  5.5849e+00|  2.3271e-08|  7.6103e-01|  5.0000e-01|  5.0000e-01|  5.0000e-01|   -5.269104|   -5.662497|   -5.884018|   -5.583138|   -5.435622|  -12.989869|    2.508145|
|         236|  5.5848e+00|  2.3224e-08|  7.6103e-01|  5.0000e-01|  5.0000e-01|  5.0000e-01|   -5.267932|   -5.659912|   -5.884628|   -5.584027|   -5.433716|  -12.990229|    2.512534|
|         237|  5.5848e+00|  2.3177e-08|  7.6103e-01|  5.0000e-01|  5.0000e-01|  5.0000e-01|   -5.268496|   -5.656717|   -5.885797|   -5.584811|   -5.434125|  -12.992588|    2.516162|
|         238|  5.5846e+00|  2.3131e-08|  7.6103e-01|  5.0000e-01|  5.0000e-01|  5.0000e-01|   -5.270647|   -5.653279|   -5.887263|   -5.585300|   -5.436718|  -12.996172|    2.518953|
|         239|  5.5843e+00|  2.3084e-08|  7.6103e-01|  5.0000e-01|  5.0000e-01|  5.0000e-01|   -5.273970|   -5.649975|   -5.888713|   -5.585359|   -5.441001|  -13.000072|    2.520853|
|         240|  5.5842e+00|  2.3038e-08|  7.6103e-01|  5.0000e-01|  5.0000e-01|  5.0000e-01|   -5.277838|   -5.647158|   -5.889852|   -5.584927|   -5.446181|  -13.003438|    2.521830|
|         241|  5.5842e+00|  2.2993e-08|  7.6103e-01|  5.0000e-01|  5.0000e-01|  5.0000e-01|   -5.281513|   -5.645091|   -5.890449|   -5.584024|   -5.451302|  -13.005573|    2.521878|
|         242|  5.5842e+00|  2.2948e-08|  7.6103e-01|  5.0000e-01|  5.0000e-01|  5.0000e-01|   -5.284288|   -5.643896|   -5.890374|   -5.582747|   -5.455403|  -13.006041|    2.521013|
|         243|  5.5841e+00|  2.2902e-08|  7.6103e-01|  5.0000e-01|  5.0000e-01|  5.0000e-01|   -5.285617|   -5.643542|   -5.889621|   -5.581252|   -5.457698|  -13.004695|    2.519274|
|         244|  5.5841e+00|  2.2858e-08|  7.6103e-01|  5.0000e-01|  5.0000e-01|  5.0000e-01|   -5.285215|   -5.643865|   -5.888296|   -5.579725|   -5.457721|  -13.001661|    2.516723|
|         245|  5.5841e+00|  2.2813e-08|  7.6103e-01|  5.0000e-01|  5.0000e-01|  5.0000e-01|   -5.283113|   -5.644595|   -5.886599|   -5.578354|   -5.455424|  -12.997303|    2.513438|
|         246|  5.5841e+00|  2.2769e-08|  7.6103e-01|  5.0000e-01|  5.0000e-01|  5.0000e-01|   -5.279633|   -5.645385|   -5.884792|   -5.577292|   -5.451164|  -12.992093|    2.509518|
|         247|  5.5842e+00|  2.2725e-08|  7.6103e-01|  5.0000e-01|  5.0000e-01|  5.0000e-01|   -5.275311|   -5.645828|   -5.883157|   -5.576632|   -5.445615|  -12.986560|    2.505072|
|         248|  5.5845e+00|  2.2682e-08|  7.6103e-01|  5.0000e-01|  5.0000e-01|  5.0000e-01|   -5.270801|   -5.645555|   -5.881954|   -5.576389|   -5.439655|  -12.981258|    2.500224|
|         249|  5.5844e+00|  2.2638e-08|  7.6103e-01|  5.0000e-01|  5.0000e-01|  5.0000e-01|   -5.266775|   -5.644317|   -5.881380|   -5.576506|   -5.434201|  -12.976766|    2.495104|
|         250|  5.5843e+00|  2.2595e-08|  7.6103e-01|  5.0000e-01|  5.0000e-01|  5.0000e-01|   -5.263810|   -5.642040|   -5.881537|   -5.576862|   -5.430063|  -12.974034|    2.489845|
|         251|  5.5843e+00|  2.2552e-08|  7.6103e-01|  5.0000e-01|  5.0000e-01|  5.0000e-01|   -5.262341|   -5.638837|   -5.882399|   -5.577287|   -5.427874|  -12.973499|    2.484581|
|         252|  5.5841e+00|  2.2510e-08|  7.6103e-01|  5.0000e-01|  5.0000e-01|  5.0000e-01|   -5.262551|   -5.634955|   -5.883811|   -5.577600|   -5.427947|  -12.974862|    2.479445|
|         253|  5.5840e+00|  2.2467e-08|  7.6103e-01|  5.0000e-01|  5.0000e-01|  5.0000e-01|   -5.264324|   -5.630697|   -5.885516|   -5.577639|   -5.430192|  -12.977423|    2.474561|
|         254|  5.5844e+00|  2.2425e-08|  7.6103e-01|  5.0000e-01|  5.0000e-01|  5.0000e-01|   -5.267266|   -5.626368|   -5.887207|   -5.577274|   -5.434135|  -12.980369|    2.470046|
|         255|  5.5845e+00|  2.2384e-08|  7.6103e-01|  5.0000e-01|  5.0000e-01|  5.0000e-01|   -5.270766|   -5.622257|   -5.888588|   -5.576438|   -5.439008|  -12.982881|    2.466006|
|         256|  5.5845e+00|  2.2342e-08|  7.6103e-01|  5.0000e-01|  5.0000e-01|  5.0000e-01|   -5.274099|   -5.618574|   -5.889429|   -5.575128|   -5.443865|  -12.984264|    2.462532|
|         257|  5.5846e+00|  2.2301e-08|  7.6103e-01|  5.0000e-01|  5.0000e-01|  5.0000e-01|   -5.276562|   -5.615413|   -5.889595|   -5.573404|   -5.447754|  -12.984076|    2.459701|
|         258|  5.5844e+00|  2.2260e-08|  7.6103e-01|  5.0000e-01|  5.0000e-01|  5.0000e-01|   -5.277606|   -5.612742|   -5.889072|   -5.571381|   -5.449889|  -12.982160|    2.457571|
|         259|  5.5844e+00|  2.2219e-08|  7.6103e-01|  5.0000e-01|  5.0000e-01|  5.0000e-01|   -5.276930|   -5.610416|   -5.887957|   -5.569204|   -5.449791|  -12.978613|    2.456184|
|         260|  5.5847e+00|  2.2178e-08|  7.6103e-01|  5.0000e-01|  5.0000e-01|  5.0000e-01|   -5.274540|   -5.608213|   -5.886439|   -5.567018|   -5.447383|  -12.973743|    2.455561|
|         261|  5.5849e+00|  2.2138e-08|  7.6103e-01|  5.0000e-01|  5.0000e-01|  5.0000e-01|   -5.270723|   -5.605857|   -5.884767|   -5.564947|   -5.442985|  -12.967975|    2.455706|
|         262|  5.5848e+00|  2.2098e-08|  7.6103e-01|  5.0000e-01|  5.0000e-01|  5.0000e-01|   -5.265979|   -5.603036|   -5.883208|   -5.563075|   -5.437225|  -12.961819|    2.456603|
|         263|  5.5848e+00|  2.2058e-08|  7.6103e-01|  5.0000e-01|  5.0000e-01|  5.0000e-01|   -5.260933|   -5.599482|   -5.882013|   -5.561430|   -5.430939|  -12.955786|    2.458220|
|         264|  5.5846e+00|  2.2019e-08|  7.6103e-01|  5.0000e-01|  5.0000e-01|  5.0000e-01|   -5.256222|   -5.595026|   -5.881371|   -5.559984|   -5.424997|  -12.950343|    2.460506|
|         265|  5.5847e+00|  2.1979e-08|  7.6103e-01|  5.0000e-01|  5.0000e-01|  5.0000e-01|   -5.252393|   -5.589634|   -5.881378|   -5.558655|   -5.420160|  -12.946200|    2.463396|
|         266|  5.5847e+00|  2.1940e-08|  7.6103e-01|  5.0000e-01|  5.0000e-01|  5.0000e-01|   -5.249843|   -5.583406|   -5.882011|   -5.557324|   -5.417007|  -12.943836|    2.466811|
|         267|  5.5847e+00|  2.1901e-08|  7.6103e-01|  5.0000e-01|  5.0000e-01|  5.0000e-01|   -5.248747|   -5.576539|   -5.883133|   -5.555851|   -5.415834|  -12.943064|    2.470660|
|         268|  5.5847e+00|  2.1863e-08|  7.6103e-01|  5.0000e-01|  5.0000e-01|  5.0000e-01|   -5.248994|   -5.569262|   -5.884509|   -5.554105|   -5.416555|  -12.943323|    2.474843|
|         269|  5.5845e+00|  2.1824e-08|  7.6103e-01|  5.0000e-01|  5.0000e-01|  5.0000e-01|   -5.250219|   -5.561808|   -5.885858|   -5.551982|   -5.418737|  -12.943943|    2.479254|
|         270|  5.5845e+00|  2.1786e-08|  7.6103e-01|  5.0000e-01|  5.0000e-01|  5.0000e-01|   -5.251871|   -5.554388|   -5.886911|   -5.549417|   -5.421683|  -12.944245|    2.483784|
|         271|  5.5847e+00|  2.1748e-08|  7.6103e-01|  5.0000e-01|  5.0000e-01|  5.0000e-01|   -5.253301|   -5.547156|   -5.887456|   -5.546396|   -5.424552|  -12.943654|    2.488322|
|         272|  5.5852e+00|  2.1710e-08|  7.6103e-01|  5.0000e-01|  5.0000e-01|  5.0000e-01|   -5.253896|   -5.540182|   -5.887370|   -5.542957|   -5.426514|  -12.941811|    2.492759|
|         273|  5.5855e+00|  2.1673e-08|  7.6103e-01|  5.0000e-01|  5.0000e-01|  5.0000e-01|   -5.253184|   -5.533451|   -5.886637|   -5.539180|   -5.426896|  -12.938589|    2.496991|
|         274|  5.5856e+00|  2.1635e-08|  7.6103e-01|  5.0000e-01|  5.0000e-01|  5.0000e-01|   -5.250916|   -5.526871|   -5.885343|   -5.535168|   -5.425301|  -12.934053|    2.500920|
|         275|  5.5859e+00|  2.1598e-08|  7.6103e-01|  5.0000e-01|  5.0000e-01|  5.0000e-01|   -5.247103|   -5.520307|   -5.883657|   -5.531037|   -5.421675|  -12.928443|    2.504459|
|         276|  5.5861e+00|  2.1561e-08|  7.6103e-01|  5.0000e-01|  5.0000e-01|  5.0000e-01|   -5.242001|   -5.513599|   -5.881803|   -5.526894|   -5.416295|  -12.922117|    2.507529|
|         277|  5.5864e+00|  2.1525e-08|  7.6103e-01|  5.0000e-01|  5.0000e-01|  5.0000e-01|   -5.236040|   -5.506574|   -5.880024|   -5.522826|   -5.409689|  -12.915481|    2.510066|
|         278|  5.5865e+00|  2.1488e-08|  7.6103e-01|  5.0000e-01|  5.0000e-01|  5.0000e-01|   -5.229750|   -5.499089|   -5.878553|   -5.518883|   -5.402553|  -12.908928|    2.512021|
|         279|  5.5867e+00|  2.1452e-08|  7.6103e-01|  5.0000e-01|  5.0000e-01|  5.0000e-01|   -5.223669|   -5.491064|   -5.877570|   -5.515068|   -5.395613|  -12.902799|    2.513358|
|         280|  5.5872e+00|  2.1416e-08|  7.6103e-01|  5.0000e-01|  5.0000e-01|  5.0000e-01|   -5.218254|   -5.482497|   -5.877175|   -5.511340|   -5.389507|  -12.897551|    2.514059|
|         281|  5.5877e+00|  2.1380e-08|  7.6103e-01|  5.0000e-01|  5.0000e-01|  5.0000e-01|   -5.213838|   -5.473464|   -5.877369|   -5.507622|   -5.384723|  -12.893688|    2.514120|
|         282|  5.5879e+00|  2.1344e-08|  7.6103e-01|  5.0000e-01|  5.0000e-01|  5.0000e-01|   -5.210583|   -5.464098|   -5.878052|   -5.503819|   -5.381539|  -12.891180|    2.513554|
|         283|  5.5880e+00|  2.1308e-08|  7.6103e-01|  5.0000e-01|  5.0000e-01|  5.0000e-01|   -5.208419|   -5.454553|   -5.879020|   -5.499833|   -5.379921|  -12.889640|    2.512386|
|         284|  5.5880e+00|  2.1273e-08|  7.6103e-01|  5.0000e-01|  5.0000e-01|  5.0000e-01|   -5.207068|   -5.444982|   -5.880031|   -5.495585|   -5.379546|  -12.888566|    2.510658|
|         285|  5.5883e+00|  2.1238e-08|  7.6103e-01|  5.0000e-01|  5.0000e-01|  5.0000e-01|   -5.206099|   -5.435521|   -5.880832|   -5.491025|   -5.379869|  -12.887444|    2.508424|
|         286|  5.5888e+00|  2.1203e-08|  7.6103e-01|  5.0000e-01|  5.0000e-01|  5.0000e-01|   -5.205010|   -5.426275|   -5.881220|   -5.486139|   -5.380225|  -12.885813|    2.505749|
|         287|  5.5889e+00|  2.1168e-08|  7.6103e-01|  5.0000e-01|  5.0000e-01|  5.0000e-01|   -5.203315|   -5.417301|   -5.881061|   -5.480949|   -5.379950|  -12.883363|    2.502706|
|         288|  5.5889e+00|  2.1134e-08|  7.6103e-01|  5.0000e-01|  5.0000e-01|  5.0000e-01|   -5.200646|   -5.408603|   -5.880321|   -5.475513|   -5.378503|  -12.879956|    2.499378|
|         289|  5.5891e+00|  2.1099e-08|  7.6103e-01|  5.0000e-01|  5.0000e-01|  5.0000e-01|   -5.196802|   -5.400143|   -5.879057|   -5.469913|   -5.375559|  -12.875606|    2.495850|
|         290|  5.5893e+00|  2.1065e-08|  7.6103e-01|  5.0000e-01|  5.0000e-01|  5.0000e-01|   -5.191784|   -5.391855|   -5.877407|   -5.464245|   -5.371052|  -12.870468|    2.492213|
|         291|  5.5893e+00|  2.1031e-08|  7.6103e-01|  5.0000e-01|  5.0000e-01|  5.0000e-01|   -5.185778|   -5.383658|   -5.875569|   -5.458610|   -5.365173|  -12.864785|    2.488555|
|         292|  5.5892e+00|  2.0997e-08|  7.6103e-01|  5.0000e-01|  5.0000e-01|  5.0000e-01|   -5.179103|   -5.375465|   -5.873767|   -5.453093|   -5.358305|  -12.858859|    2.484964|
|         293|  5.5892e+00|  2.0964e-08|  7.6103e-01|  5.0000e-01|  5.0000e-01|  5.0000e-01|   -5.172159|   -5.367200|   -5.872221|   -5.447755|   -5.350969|  -12.852987|    2.481525|
|         294|  5.5893e+00|  2.0930e-08|  7.6103e-01|  5.0000e-01|  5.0000e-01|  5.0000e-01|   -5.165360|   -5.358815|   -5.871116|   -5.442616|   -5.343732|  -12.847433|    2.478316|
|         295|  5.5893e+00|  2.0897e-08|  7.6103e-01|  5.0000e-01|  5.0000e-01|  5.0000e-01|   -5.159072|   -5.350304|   -5.870568|   -5.437657|   -5.337113|  -12.842529|    2.475409|
|         296|  5.5892e+00|  2.0864e-08|  7.6103e-01|  5.0000e-01|  5.0000e-01|  5.0000e-01|   -5.153569|   -5.341701|   -5.870604|   -5.432832|   -5.331527|  -12.838723|    2.472867|
|         297|  5.5892e+00|  2.0831e-08|  7.6103e-01|  5.0000e-01|  5.0000e-01|  5.0000e-01|   -5.149007|   -5.333074|   -5.871152|   -5.428074|   -5.327241|  -12.836089|    2.470741|
|         298|  5.5893e+00|  2.0798e-08|  7.6103e-01|  5.0000e-01|  5.0000e-01|  5.0000e-01|   -5.145367|   -5.324504|   -5.872044|   -5.423312|   -5.324283|  -12.834391|    2.469074|
|         299|  5.5894e+00|  2.0765e-08|  7.6103e-01|  5.0000e-01|  5.0000e-01|  5.0000e-01|   -5.142470|   -5.316075|   -5.873052|   -5.418482|   -5.322447|  -12.833262|    2.467895|
|         300|  5.5893e+00|  2.0733e-08|  7.6103e-01|  5.0000e-01|  5.0000e-01|  5.0000e-01|   -5.140016|   -5.307864|   -5.873934|   -5.413544|   -5.321344|  -12.832296|    2.467222|
+-----------------------------------------------------------------------+
|        File Writing Summary       |              Filename             |
+-----------------------------------------------------------------------+
|SU2 binary restart                 |restart_flow.dat                   |
|Paraview                           |flow.vtu                           |
|Paraview surface                   |surface_flow.vtu                   |
+-----------------------------------------------------------------------+
+-------------------------------------------------------------------------------------------------------------------------------------------------------------------------------------+
|  Inner_Iter|   Time(sec)|      Min DT|      Max DT|     Min CFL|     Max CFL|     Avg CFL|    rms[Rho]|   rms[RhoU]|   rms[RhoV]|   rms[RhoW]|   rms[RhoE]|     rms[nu]|          CD|
+-------------------------------------------------------------------------------------------------------------------------------------------------------------------------------------+
|         301|  5.6578e+00|  2.0701e-08|  7.6103e-01|  5.0000e-01|  5.0000e-01|  5.0000e-01|   -5.137640|   -5.299933|   -5.874478|   -5.408480|   -5.320472|  -12.831100|    2.467060|
|         302|  5.6583e+00|  2.0669e-08|  7.6103e-01|  5.0000e-01|  5.0000e-01|  5.0000e-01|   -5.134983|   -5.292321|   -5.874534|   -5.403301|   -5.319316|  -12.829391|    2.467402|
|         303|  5.6587e+00|  2.0637e-08|  7.6103e-01|  5.0000e-01|  5.0000e-01|  5.0000e-01|   -5.131761|   -5.285037|   -5.874042|   -5.398046|   -5.317443|  -12.827020|    2.468229|
|         304|  5.6589e+00|  2.0605e-08|  7.6103e-01|  5.0000e-01|  5.0000e-01|  5.0000e-01|   -5.127809|   -5.278067|   -5.873031|   -5.392775|   -5.314572|  -12.823957|    2.469511|
|         305|  5.6588e+00|  2.0573e-08|  7.6103e-01|  5.0000e-01|  5.0000e-01|  5.0000e-01|   -5.123101|   -5.271374|   -5.871619|   -5.387566|   -5.310613|  -12.820286|    2.471209|
|         306|  5.6592e+00|  2.0542e-08|  7.6103e-01|  5.0000e-01|  5.0000e-01|  5.0000e-01|   -5.117747|   -5.264913|   -5.869981|   -5.382495|   -5.305665|  -12.816169|    2.473271|
|         307|  5.6592e+00|  2.0510e-08|  7.6103e-01|  5.0000e-01|  5.0000e-01|  5.0000e-01|   -5.111956|   -5.258632|   -5.868326|   -5.377634|   -5.299980|  -12.811827|    2.475643|
|         308|  5.6593e+00|  2.0479e-08|  7.6103e-01|  5.0000e-01|  5.0000e-01|  5.0000e-01|   -5.106005|   -5.252478|   -5.866872|   -5.373028|   -5.293927|  -12.807498|    2.478259|
|         309|  5.6594e+00|  2.0448e-08|  7.6103e-01|  5.0000e-01|  5.0000e-01|  5.0000e-01|   -5.100195|   -5.246412|   -5.865802|   -5.368697|   -5.287931|  -12.803401|    2.481052|
|         310|  5.6596e+00|  2.0417e-08|  7.6103e-01|  5.0000e-01|  5.0000e-01|  5.0000e-01|   -5.094804|   -5.240416|   -5.865241|   -5.364629|   -5.282405|  -12.799783|    2.483950|
|         311|  5.6597e+00|  2.0387e-08|  7.6103e-01|  5.0000e-01|  5.0000e-01|  5.0000e-01|   -5.090054|   -5.234496|   -5.865231|   -5.360788|   -5.277695|  -12.797014|    2.486882|
|         312|  5.6595e+00|  2.0356e-08|  7.6103e-01|  5.0000e-01|  5.0000e-01|  5.0000e-01|   -5.086082|   -5.228675|   -5.865721|   -5.357119|   -5.274041|  -12.795225|    2.489775|
|         313|  5.6594e+00|  2.0326e-08|  7.6103e-01|  5.0000e-01|  5.0000e-01|  5.0000e-01|   -5.082905|   -5.222993|   -5.866563|   -5.353561|   -5.271510|  -12.794288|    2.492561|
|         314|  5.6593e+00|  2.0295e-08|  7.6103e-01|  5.0000e-01|  5.0000e-01|  5.0000e-01|   -5.080412|   -5.217490|   -5.867546|   -5.350057|   -5.269980|  -12.793933|    2.495174|
|         315|  5.6593e+00|  2.0265e-08|  7.6103e-01|  5.0000e-01|  5.0000e-01|  5.0000e-01|   -5.078396|   -5.212209|   -5.868441|   -5.346566|   -5.269175|  -12.793823|    2.497555|
|         316|  5.6592e+00|  2.0234e-08|  7.6103e-01|  5.0000e-01|  5.0000e-01|  5.0000e-01|   -5.076590|   -5.207186|   -5.869035|   -5.343061|   -5.268714|  -12.793619|    2.499650|
|         317|  5.6592e+00|  2.0204e-08|  7.6103e-01|  5.0000e-01|  5.0000e-01|  5.0000e-01|   -5.074722|   -5.202445|   -5.869174|   -5.339539|   -5.268191|  -12.793063|    2.501416|
|         318|  5.6591e+00|  2.0174e-08|  7.6103e-01|  5.0000e-01|  5.0000e-01|  5.0000e-01|   -5.072561|   -5.197996|   -5.868786|   -5.336023|   -5.267249|  -12.792001|    2.502815|
|         319|  5.6590e+00|  2.0144e-08|  7.6103e-01|  5.0000e-01|  5.0000e-01|  5.0000e-01|   -5.069960|   -5.193829|   -5.867885|   -5.332552|   -5.265636|  -12.790375|    2.503823|
|         320|  5.6587e+00|  2.0114e-08|  7.6103e-01|  5.0000e-01|  5.0000e-01|  5.0000e-01|   -5.066866|   -5.189923|   -5.866569|   -5.329180|   -5.263240|  -12.788225|    2.504424|
|         321|  5.6586e+00|  2.0084e-08|  7.6103e-01|  5.0000e-01|  5.0000e-01|  5.0000e-01|   -5.063329|   -5.186246|   -5.864994|   -5.325965|   -5.260090|  -12.785665|    2.504610|
|         322|  5.6582e+00|  2.0055e-08|  7.6103e-01|  5.0000e-01|  5.0000e-01|  5.0000e-01|   -5.059477|   -5.182758|   -5.863356|   -5.322958|   -5.256343|  -12.782863|    2.504389|
|         323|  5.6580e+00|  2.0025e-08|  7.6103e-01|  5.0000e-01|  5.0000e-01|  5.0000e-01|   -5.055497|   -5.179417|   -5.861854|   -5.320194|   -5.252255|  -12.780012|    2.503772|
|         324|  5.6577e+00|  1.9996e-08|  7.6103e-01|  5.0000e-01|  5.0000e-01|  5.0000e-01|   -5.051608|   -5.176187|   -5.860666|   -5.317688|   -5.248146|  -12.777299|    2.502786|
|         325|  5.6575e+00|  1.9967e-08|  7.6103e-01|  5.0000e-01|  5.0000e-01|  5.0000e-01|   -5.048026|   -5.173040|   -5.859921|   -5.315430|   -5.244344|  -12.774906|    2.501461|
|         326|  5.6570e+00|  1.9938e-08|  7.6103e-01|  5.0000e-01|  5.0000e-01|  5.0000e-01|   -5.044932|   -5.169966|   -5.859671|   -5.313388|   -5.241140|  -12.773118|    2.499838|
|         327|  5.6569e+00|  1.9909e-08|  7.6103e-01|  5.0000e-01|  5.0000e-01|  5.0000e-01|   -5.042451|   -5.166969|   -5.859888|   -5.311516|   -5.238756|  -12.772133|    2.497963|
|         328|  5.6567e+00|  1.9880e-08|  7.6103e-01|  5.0000e-01|  5.0000e-01|  5.0000e-01|   -5.040626|   -5.164065|   -5.860454|   -5.309757|   -5.237292|  -12.771911|    2.495889|
|         329|  5.6565e+00|  1.9852e-08|  7.6103e-01|  5.0000e-01|  5.0000e-01|  5.0000e-01|   -5.039397|   -5.161277|   -5.861190|   -5.308057|   -5.236693|  -12.772253|    2.493671|
|         330|  5.6564e+00|  1.9823e-08|  7.6103e-01|  5.0000e-01|  5.0000e-01|  5.0000e-01|   -5.038620|   -5.158630|   -5.861886|   -5.306372|   -5.236768|  -12.772880|    2.491366|
|         331|  5.6562e+00|  1.9795e-08|  7.6103e-01|  5.0000e-01|  5.0000e-01|  5.0000e-01|   -5.038091|   -5.156150|   -5.862343|   -5.304672|   -5.237225|  -12.773492|    2.489035|
|         332|  5.6561e+00|  1.9767e-08|  7.6103e-01|  5.0000e-01|  5.0000e-01|  5.0000e-01|   -5.037587|   -5.153857|   -5.862409|   -5.302945|   -5.237730|  -12.773843|    2.486734|
|         333|  5.6560e+00|  1.9739e-08|  7.6103e-01|  5.0000e-01|  5.0000e-01|  5.0000e-01|   -5.036906|   -5.151760|   -5.862001|   -5.301204|   -5.237968|  -12.773767|    2.484522|
|         334|  5.6560e+00|  1.9711e-08|  7.6103e-01|  5.0000e-01|  5.0000e-01|  5.0000e-01|   -5.035901|   -5.149857|   -5.861116|   -5.299475|   -5.237698|  -12.773184|    2.482450|
|         335|  5.6556e+00|  1.9683e-08|  7.6103e-01|  5.0000e-01|  5.0000e-01|  5.0000e-01|   -5.034496|   -5.148132|   -5.859826|   -5.297801|   -5.236778|  -12.772097|    2.480567|
|         336|  5.6552e+00|  1.9655e-08|  7.6103e-01|  5.0000e-01|  5.0000e-01|  5.0000e-01|   -5.032693|   -5.146563|   -5.858260|   -5.296225|   -5.235188|  -12.770584|    2.478917|
|         337|  5.6550e+00|  1.9628e-08|  7.6103e-01|  5.0000e-01|  5.0000e-01|  5.0000e-01|   -5.030570|   -5.145118|   -5.856588|   -5.294792|   -5.233016|  -12.768775|    2.477537|
|         338|  5.6547e+00|  1.9600e-08|  7.6103e-01|  5.0000e-01|  5.0000e-01|  5.0000e-01|   -5.028259|   -5.143761|   -5.854991|   -5.293533|   -5.230443|  -12.766830|    2.476456|
|         339|  5.6544e+00|  1.9573e-08|  7.6103e-01|  5.0000e-01|  5.0000e-01|  5.0000e-01|   -5.025930|   -5.142459|   -5.853640|   -5.292464|   -5.227719|  -12.764916|    2.475697|
|         340|  5.6542e+00|  1.9546e-08|  7.6103e-01|  5.0000e-01|  5.0000e-01|  5.0000e-01|   -5.023764|   -5.141182|   -5.852664|   -5.291581|   -5.225123|  -12.763189|    2.475272|
|         341|  5.6539e+00|  1.9519e-08|  7.6103e-01|  5.0000e-01|  5.0000e-01|  5.0000e-01|   -5.021927|   -5.139913|   -5.852136|   -5.290857|   -5.222921|  -12.761860|    2.475189|
|         342|  5.6535e+00|  1.9492e-08|  7.6103e-01|  5.0000e-01|  5.0000e-01|  5.0000e-01|   -5.020547|   -5.138650|   -5.852058|   -5.290254|   -5.221335|  -12.761187|    2.475443|
|         343|  5.6531e+00|  1.9465e-08|  7.6103e-01|  5.0000e-01|  5.0000e-01|  5.0000e-01|   -5.019697|   -5.137400|   -5.852353|   -5.289722|   -5.220505|  -12.761216|    2.476025|
|         344|  5.6529e+00|  1.9438e-08|  7.6103e-01|  5.0000e-01|  5.0000e-01|  5.0000e-01|   -5.019360|   -5.136179|   -5.852875|   -5.289211|   -5.220442|  -12.761821|    2.476916|
|         345|  5.6526e+00|  1.9412e-08|  7.6103e-01|  5.0000e-01|  5.0000e-01|  5.0000e-01|   -5.019443|   -5.135011|   -5.853440|   -5.288679|   -5.221028|  -12.762773|    2.478090|
|         346|  5.6523e+00|  1.9385e-08|  7.6103e-01|  5.0000e-01|  5.0000e-01|  5.0000e-01|   -5.019787|   -5.133918|   -5.853862|   -5.288096|   -5.222039|  -12.763800|    2.479516|
|         347|  5.6519e+00|  1.9359e-08|  7.6103e-01|  5.0000e-01|  5.0000e-01|  5.0000e-01|   -5.020201|   -5.132923|   -5.853984|   -5.287450|   -5.223187|  -12.764655|    2.481155|
|         348|  5.6516e+00|  1.9333e-08|  7.6103e-01|  5.0000e-01|  5.0000e-01|  5.0000e-01|   -5.020496|   -5.132040|   -5.853707|   -5.286747|   -5.224178|  -12.765152|    2.482966|
|         349|  5.6514e+00|  1.9307e-08|  7.6103e-01|  5.0000e-01|  5.0000e-01|  5.0000e-01|   -5.020515|   -5.131274|   -5.853000|   -5.286010|   -5.224763|  -12.765180|    2.484903|
[...]
|       11907|  5.3549e+00|  5.6054e-09|  7.6103e-01|  5.0000e-01|  5.0000e-01|  5.0000e-01|   -5.223862|   -5.386869|   -5.931787|   -5.460738|   -5.519011|   -8.180565|    1.744915|
|       11908|  5.3549e+00|  5.6054e-09|  7.6103e-01|  5.0000e-01|  5.0000e-01|  5.0000e-01|   -5.223180|   -5.386074|   -5.931683|   -5.460055|   -5.518358|   -8.180123|    1.744928|
|       11909|  5.3549e+00|  5.6054e-09|  7.6103e-01|  5.0000e-01|  5.0000e-01|  5.0000e-01|   -5.222503|   -5.385286|   -5.931582|   -5.459377|   -5.517710|   -8.179683|    1.744943|
|       11910|  5.3549e+00|  5.6053e-09|  7.6103e-01|  5.0000e-01|  5.0000e-01|  5.0000e-01|   -5.221831|   -5.384503|   -5.931485|   -5.458704|   -5.517066|   -8.179247|    1.744957|
|       11911|  5.3549e+00|  5.6053e-09|  7.6103e-01|  5.0000e-01|  5.0000e-01|  5.0000e-01|   -5.221166|   -5.383726|   -5.931392|   -5.458037|   -5.516428|   -8.178813|    1.744972|
|       11912|  5.3549e+00|  5.6052e-09|  7.6103e-01|  5.0000e-01|  5.0000e-01|  5.0000e-01|   -5.220507|   -5.382956|   -5.931302|   -5.457374|   -5.515793|   -8.178381|    1.744987|
|       11913|  5.3549e+00|  5.6052e-09|  7.6103e-01|  5.0000e-01|  5.0000e-01|  5.0000e-01|   -5.219853|   -5.382191|   -5.931216|   -5.456717|   -5.515163|   -8.177952|    1.745002|
|       11914|  5.3549e+00|  5.6052e-09|  7.6103e-01|  5.0000e-01|  5.0000e-01|  5.0000e-01|   -5.219205|   -5.381433|   -5.931133|   -5.456065|   -5.514538|   -8.177526|    1.745018|
|       11915|  5.3549e+00|  5.6051e-09|  7.6103e-01|  5.0000e-01|  5.0000e-01|  5.0000e-01|   -5.218564|   -5.380681|   -5.931054|   -5.455419|   -5.513918|   -8.177102|    1.745034|
|       11916|  5.3549e+00|  5.6051e-09|  7.6103e-01|  5.0000e-01|  5.0000e-01|  5.0000e-01|   -5.217927|   -5.379935|   -5.930977|   -5.454778|   -5.513302|   -8.176681|    1.745051|
|       11917|  5.3549e+00|  5.6050e-09|  7.6103e-01|  5.0000e-01|  5.0000e-01|  5.0000e-01|   -5.217297|   -5.379194|   -5.930903|   -5.454142|   -5.512690|   -8.176263|    1.745068|
|       11918|  5.3549e+00|  5.6050e-09|  7.6103e-01|  5.0000e-01|  5.0000e-01|  5.0000e-01|   -5.216671|   -5.378460|   -5.930833|   -5.453511|   -5.512082|   -8.175847|    1.745085|
|       11919|  5.3548e+00|  5.6050e-09|  7.6103e-01|  5.0000e-01|  5.0000e-01|  5.0000e-01|   -5.216052|   -5.377732|   -5.930765|   -5.452884|   -5.511478|   -8.175434|    1.745102|
|       11920|  5.3548e+00|  5.6049e-09|  7.6103e-01|  5.0000e-01|  5.0000e-01|  5.0000e-01|   -5.215438|   -5.377009|   -5.930701|   -5.452263|   -5.510879|   -8.175024|    1.745120|
|       11921|  5.3548e+00|  5.6049e-09|  7.6103e-01|  5.0000e-01|  5.0000e-01|  5.0000e-01|   -5.214829|   -5.376293|   -5.930640|   -5.451646|   -5.510284|   -8.174617|    1.745138|
|       11922|  5.3548e+00|  5.6048e-09|  7.6103e-01|  5.0000e-01|  5.0000e-01|  5.0000e-01|   -5.214225|   -5.375583|   -5.930582|   -5.451034|   -5.509693|   -8.174212|    1.745157|
|       11923|  5.3548e+00|  5.6048e-09|  7.6103e-01|  5.0000e-01|  5.0000e-01|  5.0000e-01|   -5.213628|   -5.374878|   -5.930527|   -5.450427|   -5.509106|   -8.173809|    1.745176|
|       11924|  5.3548e+00|  5.6047e-09|  7.6103e-01|  5.0000e-01|  5.0000e-01|  5.0000e-01|   -5.213037|   -5.374183|   -5.930476|   -5.449826|   -5.508526|   -8.173410|    1.745195|
|       11925|  5.3548e+00|  5.6047e-09|  7.6103e-01|  5.0000e-01|  5.0000e-01|  5.0000e-01|   -5.212452|   -5.373493|   -5.930428|   -5.449230|   -5.507950|   -8.173013|    1.745214|
|       11926|  5.3548e+00|  5.6046e-09|  7.6103e-01|  5.0000e-01|  5.0000e-01|  5.0000e-01|   -5.211873|   -5.372809|   -5.930383|   -5.448639|   -5.507379|   -8.172619|    1.745234|
|       11927|  5.3548e+00|  5.6046e-09|  7.6103e-01|  5.0000e-01|  5.0000e-01|  5.0000e-01|   -5.211299|   -5.372132|   -5.930341|   -5.448053|   -5.506812|   -8.172228|    1.745254|
|       11928|  5.3548e+00|  5.6046e-09|  7.6103e-01|  5.0000e-01|  5.0000e-01|  5.0000e-01|   -5.210731|   -5.371460|   -5.930302|   -5.447471|   -5.506249|   -8.171840|    1.745275|
|       11929|  5.3548e+00|  5.6045e-09|  7.6103e-01|  5.0000e-01|  5.0000e-01|  5.0000e-01|   -5.210169|   -5.370796|   -5.930265|   -5.446895|   -5.505691|   -8.171454|    1.745295|
|       11930|  5.3548e+00|  5.6045e-09|  7.6103e-01|  5.0000e-01|  5.0000e-01|  5.0000e-01|   -5.209613|   -5.370138|   -5.930232|   -5.446325|   -5.505138|   -8.171071|    1.745317|
|       11931|  5.3548e+00|  5.6044e-09|  7.6103e-01|  5.0000e-01|  5.0000e-01|  5.0000e-01|   -5.209063|   -5.369486|   -5.930202|   -5.445760|   -5.504590|   -8.170691|    1.745338|
|       11932|  5.3548e+00|  5.6044e-09|  7.6103e-01|  5.0000e-01|  5.0000e-01|  5.0000e-01|   -5.208518|   -5.368840|   -5.930175|   -5.445199|   -5.504046|   -8.170314|    1.745360|
|       11933|  5.3548e+00|  5.6043e-09|  7.6103e-01|  5.0000e-01|  5.0000e-01|  5.0000e-01|   -5.207979|   -5.368200|   -5.930151|   -5.444644|   -5.503507|   -8.169940|    1.745382|
|       11934|  5.3548e+00|  5.6043e-09|  7.6103e-01|  5.0000e-01|  5.0000e-01|  5.0000e-01|   -5.207446|   -5.367566|   -5.930130|   -5.444095|   -5.502973|   -8.169568|    1.745404|
|       11935|  5.3548e+00|  5.6042e-09|  7.6103e-01|  5.0000e-01|  5.0000e-01|  5.0000e-01|   -5.206919|   -5.366939|   -5.930112|   -5.443550|   -5.502443|   -8.169199|    1.745427|
|       11936|  5.3548e+00|  5.6042e-09|  7.6103e-01|  5.0000e-01|  5.0000e-01|  5.0000e-01|   -5.206397|   -5.366317|   -5.930096|   -5.443010|   -5.501917|   -8.168833|    1.745450|
|       11937|  5.3548e+00|  5.6041e-09|  7.6103e-01|  5.0000e-01|  5.0000e-01|  5.0000e-01|   -5.205880|   -5.365702|   -5.930084|   -5.442475|   -5.501395|   -8.168470|    1.745474|
|       11938|  5.3548e+00|  5.6041e-09|  7.6103e-01|  5.0000e-01|  5.0000e-01|  5.0000e-01|   -5.205369|   -5.365092|   -5.930074|   -5.441944|   -5.500878|   -8.168110|    1.745498|
|       11939|  5.3548e+00|  5.6040e-09|  7.6103e-01|  5.0000e-01|  5.0000e-01|  5.0000e-01|   -5.204864|   -5.364489|   -5.930066|   -5.441420|   -5.500366|   -8.167753|    1.745522|
|       11940|  5.3548e+00|  5.6040e-09|  7.6103e-01|  5.0000e-01|  5.0000e-01|  5.0000e-01|   -5.204365|   -5.363891|   -5.930062|   -5.440901|   -5.499858|   -8.167398|    1.745546|
|       11941|  5.3547e+00|  5.6039e-09|  7.6103e-01|  5.0000e-01|  5.0000e-01|  5.0000e-01|   -5.203871|   -5.363300|   -5.930060|   -5.440387|   -5.499355|   -8.167046|    1.745571|
|       11942|  5.3547e+00|  5.6039e-09|  7.6103e-01|  5.0000e-01|  5.0000e-01|  5.0000e-01|   -5.203383|   -5.362714|   -5.930061|   -5.439879|   -5.498857|   -8.166697|    1.745596|
|       11943|  5.3547e+00|  5.6038e-09|  7.6103e-01|  5.0000e-01|  5.0000e-01|  5.0000e-01|   -5.202900|   -5.362135|   -5.930065|   -5.439375|   -5.498363|   -8.166351|    1.745621|
|       11944|  5.3547e+00|  5.6038e-09|  7.6103e-01|  5.0000e-01|  5.0000e-01|  5.0000e-01|   -5.202424|   -5.361562|   -5.930072|   -5.438876|   -5.497874|   -8.166008|    1.745647|
|       11945|  5.3547e+00|  5.6037e-09|  7.6103e-01|  5.0000e-01|  5.0000e-01|  5.0000e-01|   -5.201952|   -5.360995|   -5.930081|   -5.438383|   -5.497389|   -8.165667|    1.745673|
|       11946|  5.3547e+00|  5.6037e-09|  7.6103e-01|  5.0000e-01|  5.0000e-01|  5.0000e-01|   -5.201487|   -5.360434|   -5.930094|   -5.437895|   -5.496909|   -8.165329|    1.745700|
|       11947|  5.3547e+00|  5.6036e-09|  7.6103e-01|  5.0000e-01|  5.0000e-01|  5.0000e-01|   -5.201028|   -5.359879|   -5.930110|   -5.437412|   -5.496434|   -8.164994|    1.745726|
|       11948|  5.3547e+00|  5.6036e-09|  7.6103e-01|  5.0000e-01|  5.0000e-01|  5.0000e-01|   -5.200574|   -5.359330|   -5.930128|   -5.436934|   -5.495963|   -8.164662|    1.745753|
|       11949|  5.3547e+00|  5.6035e-09|  7.6103e-01|  5.0000e-01|  5.0000e-01|  5.0000e-01|   -5.200125|   -5.358787|   -5.930149|   -5.436461|   -5.495497|   -8.164333|    1.745781|
|       11950|  5.3547e+00|  5.6035e-09|  7.6103e-01|  5.0000e-01|  5.0000e-01|  5.0000e-01|   -5.199681|   -5.358250|   -5.930172|   -5.435992|   -5.495035|   -8.164007|    1.745808|
|       11951|  5.3547e+00|  5.6034e-09|  7.6103e-01|  5.0000e-01|  5.0000e-01|  5.0000e-01|   -5.199243|   -5.357718|   -5.930197|   -5.435529|   -5.494576|   -8.163683|    1.745836|
|       11952|  5.3547e+00|  5.6034e-09|  7.6103e-01|  5.0000e-01|  5.0000e-01|  5.0000e-01|   -5.198809|   -5.357192|   -5.930225|   -5.435069|   -5.494122|   -8.163362|    1.745865|
|       11953|  5.3546e+00|  5.6033e-09|  7.6103e-01|  5.0000e-01|  5.0000e-01|  5.0000e-01|   -5.198381|   -5.356671|   -5.930255|   -5.434614|   -5.493672|   -8.163044|    1.745893|
|       11954|  5.3546e+00|  5.6033e-09|  7.6103e-01|  5.0000e-01|  5.0000e-01|  5.0000e-01|   -5.197958|   -5.356156|   -5.930288|   -5.434165|   -5.493227|   -8.162729|    1.745922|
|       11955|  5.3546e+00|  5.6032e-09|  7.6103e-01|  5.0000e-01|  5.0000e-01|  5.0000e-01|   -5.197540|   -5.355647|   -5.930324|   -5.433720|   -5.492785|   -8.162417|    1.745951|
|       11956|  5.3546e+00|  5.6032e-09|  7.6103e-01|  5.0000e-01|  5.0000e-01|  5.0000e-01|   -5.197128|   -5.355144|   -5.930362|   -5.433280|   -5.492349|   -8.162107|    1.745981|
|       11957|  5.3546e+00|  5.6031e-09|  7.6103e-01|  5.0000e-01|  5.0000e-01|  5.0000e-01|   -5.196721|   -5.354647|   -5.930403|   -5.432845|   -5.491916|   -8.161800|    1.746011|
|       11958|  5.3546e+00|  5.6030e-09|  7.6103e-01|  5.0000e-01|  5.0000e-01|  5.0000e-01|   -5.196319|   -5.354155|   -5.930446|   -5.432414|   -5.491488|   -8.161496|    1.746041|
|       11959|  5.3546e+00|  5.6030e-09|  7.6103e-01|  5.0000e-01|  5.0000e-01|  5.0000e-01|   -5.195923|   -5.353669|   -5.930491|   -5.431989|   -5.491064|   -8.161194|    1.746071|
|       11960|  5.3546e+00|  5.6029e-09|  7.6103e-01|  5.0000e-01|  5.0000e-01|  5.0000e-01|   -5.195532|   -5.353189|   -5.930539|   -5.431568|   -5.490645|   -8.160896|    1.746102|
|       11961|  5.3546e+00|  5.6029e-09|  7.6103e-01|  5.0000e-01|  5.0000e-01|  5.0000e-01|   -5.195146|   -5.352715|   -5.930589|   -5.431153|   -5.490230|   -8.160600|    1.746133|
|       11962|  5.3546e+00|  5.6028e-09|  7.6103e-01|  5.0000e-01|  5.0000e-01|  5.0000e-01|   -5.194766|   -5.352246|   -5.930642|   -5.430742|   -5.489820|   -8.160307|    1.746165|
|       11963|  5.3545e+00|  5.6028e-09|  7.6103e-01|  5.0000e-01|  5.0000e-01|  5.0000e-01|   -5.194391|   -5.351783|   -5.930696|   -5.430336|   -5.489414|   -8.160016|    1.746196|
|       11964|  5.3545e+00|  5.6027e-09|  7.6103e-01|  5.0000e-01|  5.0000e-01|  5.0000e-01|   -5.194021|   -5.351325|   -5.930754|   -5.429936|   -5.489013|   -8.159728|    1.746228|
|       11965|  5.3545e+00|  5.6026e-09|  7.6103e-01|  5.0000e-01|  5.0000e-01|  5.0000e-01|   -5.193657|   -5.350874|   -5.930814|   -5.429540|   -5.488616|   -8.159443|    1.746260|
|       11966|  5.3545e+00|  5.6026e-09|  7.6103e-01|  5.0000e-01|  5.0000e-01|  5.0000e-01|   -5.193298|   -5.350428|   -5.930876|   -5.429149|   -5.488223|   -8.159161|    1.746293|
|       11967|  5.3545e+00|  5.6025e-09|  7.6103e-01|  5.0000e-01|  5.0000e-01|  5.0000e-01|   -5.192945|   -5.349988|   -5.930940|   -5.428764|   -5.487835|   -8.158881|    1.746326|
|       11968|  5.3545e+00|  5.6025e-09|  7.6103e-01|  5.0000e-01|  5.0000e-01|  5.0000e-01|   -5.192597|   -5.349553|   -5.931007|   -5.428384|   -5.487452|   -8.158604|    1.746359|
|       11969|  5.3545e+00|  5.6024e-09|  7.6103e-01|  5.0000e-01|  5.0000e-01|  5.0000e-01|   -5.192255|   -5.349125|   -5.931077|   -5.428009|   -5.487074|   -8.158329|    1.746393|
|       11970|  5.3545e+00|  5.6023e-09|  7.6103e-01|  5.0000e-01|  5.0000e-01|  5.0000e-01|   -5.191918|   -5.348702|   -5.931148|   -5.427639|   -5.486700|   -8.158057|    1.746426|
|       11971|  5.3545e+00|  5.6023e-09|  7.6103e-01|  5.0000e-01|  5.0000e-01|  5.0000e-01|   -5.191586|   -5.348284|   -5.931222|   -5.427274|   -5.486330|   -8.157788|    1.746461|
|       11972|  5.3544e+00|  5.6022e-09|  7.6103e-01|  5.0000e-01|  5.0000e-01|  5.0000e-01|   -5.191259|   -5.347873|   -5.931299|   -5.426913|   -5.485965|   -8.157521|    1.746495|
|       11973|  5.3544e+00|  5.6022e-09|  7.6103e-01|  5.0000e-01|  5.0000e-01|  5.0000e-01|   -5.190938|   -5.347467|   -5.931378|   -5.426558|   -5.485604|   -8.157257|    1.746530|
|       11974|  5.3544e+00|  5.6021e-09|  7.6103e-01|  5.0000e-01|  5.0000e-01|  5.0000e-01|   -5.190622|   -5.347066|   -5.931460|   -5.426208|   -5.485248|   -8.156995|    1.746564|
|       11975|  5.3544e+00|  5.6020e-09|  7.6103e-01|  5.0000e-01|  5.0000e-01|  5.0000e-01|   -5.190311|   -5.346671|   -5.931544|   -5.425862|   -5.484896|   -8.156735|    1.746600|
|       11976|  5.3544e+00|  5.6020e-09|  7.6103e-01|  5.0000e-01|  5.0000e-01|  5.0000e-01|   -5.190005|   -5.346281|   -5.931631|   -5.425520|   -5.484548|   -8.156478|    1.746635|
|       11977|  5.3544e+00|  5.6019e-09|  7.6103e-01|  5.0000e-01|  5.0000e-01|  5.0000e-01|   -5.189704|   -5.345898|   -5.931721|   -5.425183|   -5.484204|   -8.156224|    1.746671|
|       11978|  5.3544e+00|  5.6018e-09|  7.6103e-01|  5.0000e-01|  5.0000e-01|  5.0000e-01|   -5.189409|   -5.345519|   -5.931813|   -5.424852|   -5.483865|   -8.155972|    1.746707|
|       11979|  5.3544e+00|  5.6018e-09|  7.6103e-01|  5.0000e-01|  5.0000e-01|  5.0000e-01|   -5.189119|   -5.345147|   -5.931909|   -5.424526|   -5.483532|   -8.155722|    1.746743|
|       11980|  5.3544e+00|  5.6017e-09|  7.6103e-01|  5.0000e-01|  5.0000e-01|  5.0000e-01|   -5.188835|   -5.344780|   -5.932007|   -5.424205|   -5.483203|   -8.155475|    1.746780|
|       11981|  5.3544e+00|  5.6017e-09|  7.6103e-01|  5.0000e-01|  5.0000e-01|  5.0000e-01|   -5.188557|   -5.344419|   -5.932108|   -5.423890|   -5.482879|   -8.155230|    1.746817|
|       11982|  5.3544e+00|  5.6016e-09|  7.6103e-01|  5.0000e-01|  5.0000e-01|  5.0000e-01|   -5.188284|   -5.344064|   -5.932212|   -5.423580|   -5.482560|   -8.154987|    1.746854|
|       11983|  5.3544e+00|  5.6015e-09|  7.6103e-01|  5.0000e-01|  5.0000e-01|  5.0000e-01|   -5.188016|   -5.343714|   -5.932317|   -5.423275|   -5.482245|   -8.154747|    1.746892|
|       11984|  5.3544e+00|  5.6015e-09|  7.6103e-01|  5.0000e-01|  5.0000e-01|  5.0000e-01|   -5.187753|   -5.343370|   -5.932425|   -5.422975|   -5.481935|   -8.154509|    1.746929|
|       11985|  5.3544e+00|  5.6014e-09|  7.6103e-01|  5.0000e-01|  5.0000e-01|  5.0000e-01|   -5.187496|   -5.343031|   -5.932536|   -5.422679|   -5.481629|   -8.154273|    1.746967|
|       11986|  5.3544e+00|  5.6013e-09|  7.6103e-01|  5.0000e-01|  5.0000e-01|  5.0000e-01|   -5.187243|   -5.342698|   -5.932649|   -5.422388|   -5.481327|   -8.154039|    1.747006|
|       11987|  5.3544e+00|  5.6013e-09|  7.6103e-01|  5.0000e-01|  5.0000e-01|  5.0000e-01|   -5.186997|   -5.342371|   -5.932766|   -5.422103|   -5.481030|   -8.153807|    1.747044|
|       11988|  5.3544e+00|  5.6012e-09|  7.6103e-01|  5.0000e-01|  5.0000e-01|  5.0000e-01|   -5.186755|   -5.342049|   -5.932886|   -5.421822|   -5.480739|   -8.153577|    1.747083|
|       11989|  5.3544e+00|  5.6011e-09|  7.6103e-01|  5.0000e-01|  5.0000e-01|  5.0000e-01|   -5.186520|   -5.341734|   -5.933009|   -5.421547|   -5.480452|   -8.153350|    1.747122|
|       11990|  5.3544e+00|  5.6011e-09|  7.6103e-01|  5.0000e-01|  5.0000e-01|  5.0000e-01|   -5.186289|   -5.341423|   -5.933136|   -5.421276|   -5.480169|   -8.153124|    1.747161|
|       11991|  5.3544e+00|  5.6010e-09|  7.6103e-01|  5.0000e-01|  5.0000e-01|  5.0000e-01|   -5.186062|   -5.341118|   -5.933266|   -5.421008|   -5.479890|   -8.152901|    1.747201|
|       11992|  5.3544e+00|  5.6009e-09|  7.6103e-01|  5.0000e-01|  5.0000e-01|  5.0000e-01|   -5.185842|   -5.340819|   -5.933400|   -5.420747|   -5.479615|   -8.152680|    1.747241|
|       11993|  5.3544e+00|  5.6008e-09|  7.6103e-01|  5.0000e-01|  5.0000e-01|  5.0000e-01|   -5.185627|   -5.340525|   -5.933535|   -5.420490|   -5.479346|   -8.152460|    1.747281|
|       11994|  5.3544e+00|  5.6008e-09|  7.6103e-01|  5.0000e-01|  5.0000e-01|  5.0000e-01|   -5.185417|   -5.340237|   -5.933674|   -5.420238|   -5.479081|   -8.152243|    1.747321|
|       11995|  5.3544e+00|  5.6007e-09|  7.6103e-01|  5.0000e-01|  5.0000e-01|  5.0000e-01|   -5.185212|   -5.339956|   -5.933814|   -5.419991|   -5.478821|   -8.152027|    1.747362|
|       11996|  5.3544e+00|  5.6006e-09|  7.6103e-01|  5.0000e-01|  5.0000e-01|  5.0000e-01|   -5.185013|   -5.339679|   -5.933957|   -5.419750|   -5.478566|   -8.151814|    1.747403|
|       11997|  5.3544e+00|  5.6006e-09|  7.6103e-01|  5.0000e-01|  5.0000e-01|  5.0000e-01|   -5.184820|   -5.339409|   -5.934104|   -5.419514|   -5.478316|   -8.151602|    1.747444|
|       11998|  5.3544e+00|  5.6005e-09|  7.6103e-01|  5.0000e-01|  5.0000e-01|  5.0000e-01|   -5.184631|   -5.339144|   -5.934253|   -5.419283|   -5.478070|   -8.151392|    1.747485|
|       11999|  5.3544e+00|  5.6004e-09|  7.6103e-01|  5.0000e-01|  5.0000e-01|  5.0000e-01|   -5.184448|   -5.338885|   -5.934405|   -5.419056|   -5.477829|   -8.151183|    1.747527|
|       12000|  5.3544e+00|  5.6003e-09|  7.6103e-01|  5.0000e-01|  5.0000e-01|  5.0000e-01|   -5.184271|   -5.338631|   -5.934560|   -5.418835|   -5.477593|   -8.150977|    1.747569|
+-----------------------------------------------------------------------+
|        File Writing Summary       |              Filename             |
+-----------------------------------------------------------------------+
|SU2 binary restart                 |restart_flow.dat                   |
|Paraview                           |flow.vtu                           |
|Paraview surface                   |surface_flow.vtu                   |

scontrol show job 1072099
JobId=1072099 JobName=m6_fine
   UserId=anthonyy(3152141) GroupId=anthonyy(3152141) MCS_label=N/A
   Priority=814041 Nice=0 Account=rrg-jphickey QOS=normal
   JobState=COMPLETING Reason=TimeLimit Dependency=(null)
   Requeue=0 Restarts=0 BatchFlag=1 Reboot=0 ExitCode=0:15
   RunTime=18:00:24 TimeLimit=18:00:00 TimeMin=N/A
   SubmitTime=2026-02-27T02:30:05 EligibleTime=2026-02-27T02:30:05
   AccrueTime=2026-02-27T02:30:05
   StartTime=2026-02-27T02:30:10 EndTime=2026-02-27T20:30:34 Deadline=N/A
   SuspendTime=None SecsPreSuspend=0 LastSchedEval=2026-02-27T02:30:10 Scheduler=Main
   Partition=compute AllocNode:Sid=tri-login02:7576
   ReqNodeList=(null) ExcNodeList=(null)
   NodeList=tri[0224,0241]
   BatchHost=tri0224
   NumNodes=2 NumCPUs=384 NumTasks=128 CPUs/Task=1 ReqB:S:C:T=0:0:*:*
   ReqTRES=cpu=128,mem=1534000M,node=2,billing=128
   AllocTRES=cpu=384,mem=1534000M,node=2,billing=384
   Socks/Node=* NtasksPerN:B:S:C=64:0:*:* CoreSpec=*
   MinCPUsNode=64 MinMemoryNode=767000M MinTmpDiskNode=0
   Features=(null) DelayBoot=00:00:00
   OverSubscribe=NO Contiguous=0 Licenses=(null) Network=(null)
   Command=/scratch/anthonyy/reentry/orion/cases/m6_aoa32/run.sh
   WorkDir=/scratch/anthonyy/reentry/orion/cases/m6_aoa32
   Comment=/opt/slurm/bin/sbatch --export=NONE --get-user-env=L run.sh 
   StdErr=/scratch/anthonyy/reentry/orion/cases/m6_aoa32/orion_1072099.err
   StdIn=/dev/null
   StdOut=/scratch/anthonyy/reentry/orion/cases/m6_aoa32/orion_1072099.out
   TresPerTask=cpu=1
   

sacct -j 1072099
JobID           JobName    Account    Elapsed  MaxVMSize     MaxRSS  SystemCPU    UserCPU ExitCode 
------------ ---------- ---------- ---------- ---------- ---------- ---------- ---------- -------- 
1072099         m6_fine rrg-jphic+   18:00:24                         07:17:12 94-18:01:+      0:0 
1072099.bat+      batch rrg-jphic+   18:00:26          0     10316K  00:00.140  00:00.600     0:15 
1072099.ext+     extern rrg-jphic+   18:00:30          0          0   00:00:00   00:00:00      0:0 
1072099.0       SU2_CFD rrg-jphic+   18:00:24          0   7974324K   07:17:12 94-18:01:+     0:15 

