Nodes: tri[0043,0082]
Tasks: 128
NPN:   64

-------------------------------------------------------------------------
|    ___ _   _ ___                                                      |
|   / __| | | |_  )   Release 7.5.1 "Blackbird"                         |
|   \__ \ |_| |/ /                                                      |
|   |___/\___//___|   Suite (Computational Fluid Dynamics Code)         |
|                                                                       |
-------------------------------------------------------------------------
| SU2 Project Website: https://su2code.github.io                        |
|                                                                       |
| The SU2 Project is maintained by the SU2 Foundation                   |
| (http://su2foundation.org)                                            |
-------------------------------------------------------------------------
| Copyright 2012-2023, SU2 Contributors                                 |
|                                                                       |
| SU2 is free software; you can redistribute it and/or                  |
| modify it under the terms of the GNU Lesser General Public            |
| License as published by the Free Software Foundation; either          |
| version 2.1 of the License, or (at your option) any later version.    |
|                                                                       |
| SU2 is distributed in the hope that it will be useful,                |
| but WITHOUT ANY WARRANTY; without even the implied warranty of        |
| MERCHANTABILITY or FITNESS FOR A PARTICULAR PURPOSE. See the GNU      |
| Lesser General Public License for more details.                       |
|                                                                       |
| You should have received a copy of the GNU Lesser General Public      |
| License along with SU2. If not, see <http://www.gnu.org/licenses/>.   |
-------------------------------------------------------------------------

Parsing config file for zone 0

----------------- Physical Case Definition ( Zone 0 ) -------------------
Compressible RANS equations.
Turbulence model: Spalart-Allmaras-noft2
Hybrid RANS/LES: No Hybrid RANS/LES
Mach number: 6.
Angle of attack (AoA): 32 deg, and angle of sideslip (AoS): 0 deg.
Reynolds number: 6.86229e+08. Reference length 5.
Reading and writing binary SU2 native restart files.
Read flow solution from: restart_flow.dat.
Non-Dimensional simulation (V=1.0, Rho=1.0, T=1.0 at the farfield).
The reference area will be computed using y(2D) or z(3D) projection.
The semi-span will be computed using the max y(3D) value.
The reference length is 0.64607 m.
Reference origin for moment evaluation is (0.25, 0, 0).
Surface(s) where the force coefficients are evaluated: ORION_SURFACE.

Input mesh file name: fine.su2

--------------- Space Numerical Integration ( Zone 0 ) ------------------
Jameson-Schmidt-Turkel scheme (2nd order in space) for the flow inviscid terms.
JST viscous coefficients (2nd & 4th): 0.5, 0.02.
The method includes a grid stretching correction (p = 0.3).
Scalar upwind solver for the turbulence model.
First order integration in space.
Average of gradients with correction (viscous flow terms).
Average of gradients with correction (viscous turbulence terms).
Gradient for upwind reconstruction: Green-Gauss.
Gradient for viscous and source terms: Green-Gauss.

--------------- Time Numerical Integration  ( Zone 0 ) ------------------
Local time stepping (steady state simulation).
Euler implicit method for the flow equations.
FGMRES is used for solving the linear system.
Using a ILU(0) preconditioning.
Convergence criteria of the linear solver: 1e-06.
Max number of linear iterations: 100.
CFL adaptation. Factor down: 0.5, factor up: 1.1,
                lower limit: 0.05, upper limit: 0.5,
                acceptable linear residual: 0.001.
Courant-Friedrichs-Lewy number:     0.03
Euler implicit time integration for the turbulence model.

------------------ Convergence Criteria  ( Zone 0 ) ---------------------
Maximum number of solver subiterations: 999999.
Begin convergence monitoring at iteration 5.
Residual minimum value: 1e-8.
Cauchy series min. value: 1e-10.
Number of Cauchy elements: 100.
Begin windowed time average at iteration 0.

-------------------- Output Information ( Zone 0 ) ----------------------
File writing frequency: 
+------------------------------------+
|                     File| Frequency|
+------------------------------------+
|                  RESTART|       150|
|                 PARAVIEW|       150|
|         SURFACE_PARAVIEW|       150|
+------------------------------------+
Writing the convergence history file every 1 inner iterations.
Writing the screen convergence history every 1 inner iterations.
The tabular file format is CSV (.csv).
Convergence history file name: history.
Forces breakdown file name: forces_breakdown.dat.
Surface file name: surface_flow.
Volume file name: flow.
Restart file name: restart_flow.

------------- Config File Boundary Information ( Zone 0 ) ---------------
+-----------------------------------------------------------------------+
|                        Marker Type|                        Marker Name|
+-----------------------------------------------------------------------+
|                          Far-field|                           FARFIELD|
+-----------------------------------------------------------------------+
|                     Heat flux wall|                      ORION_SURFACE|
+-----------------------------------------------------------------------+

-------------------- Output Preprocessing ( Zone 0 ) --------------------

WARNING: SURFACE_PRESSURE_DROP can only be computed for at least 2 surfaces (outlet, inlet, ...)

Screen output fields: INNER_ITER, WALL_TIME, MIN_DELTA_TIME, MAX_DELTA_TIME, MIN_CFL, MAX_CFL, AVG_CFL, RMS_DENSITY, RMS_MOMENTUM-X, RMS_MOMENTUM-Y, RMS_MOMENTUM-Z, RMS_ENERGY, RMS_NU_TILDE, DRAG
History output group(s): ITER, RMS_RES
Convergence field(s): RMS_DENSITY
Warning: No (valid) fields chosen for time convergence monitoring. Time convergence monitoring inactive.
Volume output fields: MACH, PRESSURE, TEMPERATURE, DENSITY, HEAT_FLUX, Y_PLUS, COORDINATES, SOLUTION

------------------- Geometry Preprocessing ( Zone 0 ) -------------------
Three dimensional problem.
62211324 grid points before partitioning.
190879888 volume elements before partitioning.
2 surface markers.
4104 boundary elements in index 0 (Marker = FARFIELD).
1824836 boundary elements in index 1 (Marker = ORION_SURFACE).
Executing the partitioning functions.
Building the graph adjacency structure.
Calling ParMETIS... graph partitioning complete (4959327 edge cuts).
Distributing ParMETIS coloring.
Rebalancing vertices.
Rebalancing volume element connectivity.
Rebalancing markers and surface elements.
66952290 vertices including ghost points. 
197997438 interior elements including halo cells. 
103171259 tetrahedra.
94500655 prisms.
325524 pyramids.
Establishing MPI communication patterns.
Setting point connectivity.
Renumbering points (Reverse Cuthill McKee Ordering).
Recomputing point connectivity.
Setting element connectivity.
Checking the numerical grid orientation.
All volume elements are correctly orientend.
All surface elements are correctly orientend.
Identifying edges and vertices.
Setting the control volume structure.
Volume of the computational grid: 535693.
Searching for the closest normal neighbors to the surfaces.
Storing a mapping from global to local point index.
Compute the surface curvature.
Max K: 132.896. Mean K: 3.9104. Standard deviation K: 7.49569.
Checking for periodicity.
Computing mesh quality statistics for the dual control volumes.
+--------------------------------------------------------------+
|           Mesh Quality Metric|        Minimum|        Maximum|
+--------------------------------------------------------------+
|    Orthogonality Angle (deg.)|        53.0661|             90|
|     CV Face Area Aspect Ratio|        1.01143|        75298.5|
|           CV Sub-Volume Ratio|        1.00029|        45.0258|
+--------------------------------------------------------------+
Finding max control volume width.
Communicating number of neighbors.
Reference area = 11.531 m^2.
Semi-span length = 2.49999 m.
Wetted area = 57.9072 m^2.
Area projection in the x-plane = 19.6343 m^2, y-plane = 11.531 m^2, z-plane = 11.531 m^2.
Max. coordinate in the x-direction = 2.575 m, y-direction = 2.49999 m, z-direction = 2.49999 m.
Min. coordinate in the x-direction = -0.71 m, y-direction = -2.49999 m, z-direction = -2.5 m.
Computing wall distances.

-------------------- Solver Preprocessing ( Zone 0 ) --------------------
Viscous flow: Computing pressure using the ideal gas law
based on the free-stream temperature and a density computed
from the Reynolds number.
Force coefficients computed using free-stream values.

-- Models:
+------------------------------------------------------------------------------+
|          Viscosity Model|        Conductivity Model|              Fluid Model|
+------------------------------------------------------------------------------+
|               SUTHERLAND|          CONSTANT_PRANDTL|             STANDARD_AIR|
+------------------------------------------------------------------------------+
-- Fluid properties:
+------------------------------------------------------------------------------+
|                  Name|    Dim. value|    Ref. value|      Unit|Non-dim. value|
+------------------------------------------------------------------------------+
|        Ref. Viscosity|     1.716e-05|       2455.73|   N.s/m^2|   6.98773e-09|
|      Sutherland Temp.|        273.15|        288.15|         K|      0.947944|
|     Sutherland Const.|         110.4|        288.15|         K|      0.383134|
+------------------------------------------------------------------------------+
|        Prandtl (Lam.)|             -|             -|         -|          0.72|
|       Prandtl (Turb.)|             -|             -|         -|           0.9|
+------------------------------------------------------------------------------+
|          Gas Constant|       287.058|       14467.7|  N.m/kg.K|     0.0198413|
|      Spec. Heat Ratio|             -|             -|         -|           1.4|
+------------------------------------------------------------------------------+
-- Initial and free-stream conditions:
+------------------------------------------------------------------------------+
|                  Name|    Dim. value|    Ref. value|      Unit|Non-dim. value|
+------------------------------------------------------------------------------+
|       Static Pressure|       99485.6|   5.01407e+06|        Pa|     0.0198413|
|               Density|       1.20274|       1.20274|    kg/m^3|             1|
|           Temperature|        288.15|        288.15|         K|             1|
|          Total Energy|   2.29123e+06|   4.16887e+06|   m^2/s^2|      0.549603|
|            Velocity-X|       1731.53|       2041.78|       m/s|      0.848048|
|            Velocity-Y|             0|       2041.78|       m/s|             0|
|            Velocity-Z|       1081.98|       2041.78|       m/s|      0.529919|
|    Velocity Magnitude|       2041.78|       2041.78|       m/s|             1|
+------------------------------------------------------------------------------+
|             Viscosity|    1.7893e-05|       2455.73|   N.s/m^2|    7.2862e-09|
|          Conductivity|             -|   3.55289e+07|   W/m^2.K|             -|
|     Turb. Kin. Energy|       15633.3|   4.16887e+06|   m^2/s^2|       0.00375|
|     Spec. Dissipation|   1.05085e+08|       2041.78|       1/s|       51467.1|
+------------------------------------------------------------------------------+
|           Mach Number|             -|             -|         -|             6|
|       Reynolds Number|             -|             -|         -|   6.86229e+08|
+------------------------------------------------------------------------------+
Initialize Jacobian structure (Navier-Stokes). MG level: 0.
Initialize Jacobian structure (SA model).

------------------- Numerics Preprocessing ( Zone 0 ) -------------------

----------------- Integration Preprocessing ( Zone 0 ) ------------------

------------------- Iteration Preprocessing ( Zone 0 ) ------------------
Euler/Navier-Stokes/RANS fluid iteration.

------------------------------ Begin Solver -----------------------------

Simulation Run using the Single-zone Driver
WARNING: SU2 was not compiled for an AVX-capable architecture. Performance could be better,
         see https://su2code.github.io/docs_v7/Build-SU2-Linux-MacOS/#compiler-optimizations
+-------------------------------------------------------------------------------------------------------------------------------------------------------------------------------------+
|  Inner_Iter|   Time(sec)|      Min DT|      Max DT|     Min CFL|     Max CFL|     Avg CFL|    rms[Rho]|   rms[RhoU]|   rms[RhoV]|   rms[RhoW]|   rms[RhoE]|     rms[nu]|          CD|
+-------------------------------------------------------------------------------------------------------------------------------------------------------------------------------------+
|           0|  9.6928e+00|  3.3602e-10|  4.5662e-02|  5.0000e-02|  5.0000e-02|  5.0000e-02|   -5.184098|   -5.338383|   -5.934719|   -5.418619|   -5.477361|   -8.152682|    1.747571|
|           1|  8.5348e+00|  5.6003e-10|  7.6103e-02|  5.5000e-02|  5.5000e-02|  5.5000e-02|   -5.184120|   -5.338394|   -5.934783|   -5.418643|   -5.477401|   -8.152587|    1.747575|
|           2|  8.1263e+00|  6.1603e-10|  8.3713e-02|  6.0500e-02|  6.0500e-02|  6.0500e-02|   -5.184154|   -5.338409|   -5.934884|   -5.418680|   -5.477465|   -8.152546|    1.747580|
|           3|  7.9173e+00|  6.7763e-10|  9.2084e-02|  6.6550e-02|  6.6550e-02|  6.6550e-02|   -5.184191|   -5.338426|   -5.934993|   -5.418721|   -5.477533|   -8.152499|    1.747585|
|           4|  7.8593e+00|  7.4539e-10|  1.0129e-01|  7.3205e-02|  7.3205e-02|  7.3205e-02|   -5.184230|   -5.338445|   -5.935111|   -5.418764|   -5.477607|   -8.152449|    1.747591|
|           5|  7.7743e+00|  8.1993e-10|  1.1142e-01|  8.0526e-02|  8.0526e-02|  8.0526e-02|   -5.184273|   -5.338465|   -5.935238|   -5.418810|   -5.477687|   -8.152393|    1.747597|
|           6|  7.7121e+00|  9.0192e-10|  1.2256e-01|  8.8578e-02|  8.8578e-02|  8.8578e-02|   -5.184319|   -5.338487|   -5.935374|   -5.418859|   -5.477773|   -8.152331|    1.747603|
|           7|  7.6329e+00|  9.9211e-10|  1.3482e-01|  9.7436e-02|  9.7436e-02|  9.7436e-02|   -5.184368|   -5.338511|   -5.935519|   -5.418912|   -5.477865|   -8.152263|    1.747611|
|           8|  7.5856e+00|  1.0913e-09|  1.4830e-01|  1.0718e-01|  1.0718e-01|  1.0718e-01|   -5.184420|   -5.338536|   -5.935674|   -5.418967|   -5.477963|   -8.152189|    1.747619|
|           9|  7.5286e+00|  1.2005e-09|  1.6313e-01|  1.1790e-01|  1.1790e-01|  1.1790e-01|   -5.184476|   -5.338563|   -5.935839|   -5.419026|   -5.478067|   -8.152107|    1.747628|
|          10|  7.4739e+00|  1.3205e-09|  1.7945e-01|  1.2969e-01|  1.2969e-01|  1.2969e-01|   -5.184535|   -5.338593|   -5.936014|   -5.419088|   -5.478178|   -8.152017|    1.747638|
|          11|  7.4366e+00|  1.4525e-09|  1.9739e-01|  1.4266e-01|  1.4266e-01|  1.4266e-01|   -5.184598|   -5.338624|   -5.936198|   -5.419152|   -5.478295|   -8.151917|    1.747649|
|          12|  7.4052e+00|  1.5978e-09|  2.1713e-01|  1.5692e-01|  1.5692e-01|  1.5692e-01|   -5.184664|   -5.338657|   -5.936392|   -5.419219|   -5.478417|   -8.151808|    1.747661|
|          13|  7.4508e+00|  1.7576e-09|  2.3884e-01|  1.7261e-01|  1.7261e-01|  1.7261e-01|   -5.184732|   -5.338691|   -5.936594|   -5.419287|   -5.478545|   -8.151688|    1.747674|
|          14|  7.4863e+00|  1.9333e-09|  2.6273e-01|  1.8987e-01|  1.8987e-01|  1.8987e-01|   -5.184803|   -5.338727|   -5.936804|   -5.419356|   -5.478678|   -8.151556|    1.747689|
|          15|  7.5142e+00|  2.1266e-09|  2.8900e-01|  2.0886e-01|  2.0886e-01|  2.0886e-01|   -5.184876|   -5.338764|   -5.937020|   -5.419425|   -5.478813|   -8.151411|    1.747705|
|          16|  7.5572e+00|  2.3393e-09|  3.1790e-01|  2.2975e-01|  2.2975e-01|  2.2975e-01|   -5.184949|   -5.338801|   -5.937241|   -5.419492|   -5.478950|   -8.151251|    1.747722|
|          17|  7.5896e+00|  2.5732e-09|  3.4969e-01|  2.5272e-01|  2.5272e-01|  2.5272e-01|   -5.185022|   -5.338837|   -5.937465|   -5.419556|   -5.479087|   -8.151076|    1.747742|
|          18|  7.6184e+00|  2.8305e-09|  3.8466e-01|  2.7800e-01|  2.7800e-01|  2.7800e-01|   -5.185094|   -5.338872|   -5.937688|   -5.419615|   -5.479219|   -8.150884|    1.747764|
|          19|  7.6564e+00|  3.1135e-09|  4.2313e-01|  3.0580e-01|  3.0580e-01|  3.0580e-01|   -5.185161|   -5.338902|   -5.937907|   -5.419665|   -5.479345|   -8.150673|    1.747788|
|          20|  7.6811e+00|  3.4248e-09|  4.6544e-01|  3.3637e-01|  3.3637e-01|  3.3637e-01|   -5.185221|   -5.338926|   -5.938119|   -5.419703|   -5.479457|   -8.150442|    1.747814|
|          21|  7.7000e+00|  3.7673e-09|  5.1198e-01|  3.7001e-01|  3.7001e-01|  3.7001e-01|   -5.185271|   -5.338941|   -5.938318|   -5.419725|   -5.479551|   -8.150189|    1.747843|
|          22|  7.7095e+00|  4.1440e-09|  5.6318e-01|  4.0701e-01|  4.0701e-01|  4.0701e-01|   -5.185306|   -5.338942|   -5.938499|   -5.419725|   -5.479619|   -8.149912|    1.747876|
|          23|  7.7532e+00|  4.5583e-09|  6.1950e-01|  4.4772e-01|  4.4772e-01|  4.4772e-01|   -5.185320|   -5.338924|   -5.938655|   -5.419696|   -5.479649|   -8.149610|    1.747911|
|          24|  7.7895e+00|  5.0141e-09|  6.8145e-01|  4.9249e-01|  4.9249e-01|  4.9249e-01|   -5.185306|   -5.338879|   -5.938777|   -5.419630|   -5.479628|   -8.149281|    1.747951|
|          25|  7.8251e+00|  5.5155e-09|  7.4959e-01|  5.0000e-01|  5.0000e-01|  5.0000e-01|   -5.185254|   -5.338797|   -5.938858|   -5.419516|   -5.479542|   -8.148922|    1.747994|
|          26|  7.8724e+00|  5.5995e-09|  7.6103e-01|  5.0000e-01|  5.0000e-01|  5.0000e-01|   -5.185153|   -5.338666|   -5.938887|   -5.419341|   -5.479370|   -8.148699|    1.748039|
|          27|  7.9038e+00|  5.5995e-09|  7.6103e-01|  5.0000e-01|  5.0000e-01|  5.0000e-01|   -5.185040|   -5.338520|   -5.938917|   -5.419154|   -5.479174|   -8.148505|    1.748084|
|          28|  7.9306e+00|  5.5994e-09|  7.6103e-01|  5.0000e-01|  5.0000e-01|  5.0000e-01|   -5.184925|   -5.338365|   -5.938961|   -5.418965|   -5.478969|   -8.148314|    1.748129|
|          29|  7.9615e+00|  5.5993e-09|  7.6103e-01|  5.0000e-01|  5.0000e-01|  5.0000e-01|   -5.184806|   -5.338204|   -5.939017|   -5.418776|   -5.478755|   -8.148126|    1.748174|
|          30|  7.9950e+00|  5.5992e-09|  7.6103e-01|  5.0000e-01|  5.0000e-01|  5.0000e-01|   -5.184686|   -5.338035|   -5.939086|   -5.418585|   -5.478534|   -8.147940|    1.748219|
|          31|  8.0286e+00|  5.5992e-09|  7.6103e-01|  5.0000e-01|  5.0000e-01|  5.0000e-01|   -5.184563|   -5.337861|   -5.939166|   -5.418394|   -5.478307|   -8.147756|    1.748265|
|          32|  8.0507e+00|  5.5991e-09|  7.6103e-01|  5.0000e-01|  5.0000e-01|  5.0000e-01|   -5.184439|   -5.337681|   -5.939258|   -5.418203|   -5.478073|   -8.147574|    1.748311|
|          33|  8.0997e+00|  5.5990e-09|  7.6103e-01|  5.0000e-01|  5.0000e-01|  5.0000e-01|   -5.184314|   -5.337497|   -5.939362|   -5.418013|   -5.477834|   -8.147394|    1.748357|
|          34|  8.1374e+00|  5.5989e-09|  7.6103e-01|  5.0000e-01|  5.0000e-01|  5.0000e-01|   -5.184189|   -5.337309|   -5.939476|   -5.417824|   -5.477592|   -8.147216|    1.748403|
|          35|  8.1607e+00|  5.5988e-09|  7.6103e-01|  5.0000e-01|  5.0000e-01|  5.0000e-01|   -5.184063|   -5.337119|   -5.939600|   -5.417637|   -5.477346|   -8.147040|    1.748450|
|          36|  8.1841e+00|  5.5988e-09|  7.6103e-01|  5.0000e-01|  5.0000e-01|  5.0000e-01|   -5.183939|   -5.336926|   -5.939734|   -5.417451|   -5.477098|   -8.146865|    1.748496|
|          37|  8.2057e+00|  5.5987e-09|  7.6103e-01|  5.0000e-01|  5.0000e-01|  5.0000e-01|   -5.183815|   -5.336733|   -5.939879|   -5.417269|   -5.476849|   -8.146692|    1.748543|
|          38|  8.2283e+00|  5.5986e-09|  7.6103e-01|  5.0000e-01|  5.0000e-01|  5.0000e-01|   -5.183694|   -5.336540|   -5.940032|   -5.417089|   -5.476600|   -8.146520|    1.748590|
|          39|  8.2443e+00|  5.5985e-09|  7.6103e-01|  5.0000e-01|  5.0000e-01|  5.0000e-01|   -5.183574|   -5.336346|   -5.940194|   -5.416912|   -5.476351|   -8.146350|    1.748638|
|          40|  8.2576e+00|  5.5984e-09|  7.6103e-01|  5.0000e-01|  5.0000e-01|  5.0000e-01|   -5.183457|   -5.336154|   -5.940364|   -5.416739|   -5.476104|   -8.146180|    1.748685|
|          41|  8.2756e+00|  5.5984e-09|  7.6103e-01|  5.0000e-01|  5.0000e-01|  5.0000e-01|   -5.183343|   -5.335965|   -5.940543|   -5.416572|   -5.475860|   -8.146012|    1.748733|
|          42|  8.2900e+00|  5.5983e-09|  7.6103e-01|  5.0000e-01|  5.0000e-01|  5.0000e-01|   -5.183235|   -5.335779|   -5.940730|   -5.416410|   -5.475621|   -8.145845|    1.748781|
|          43|  8.3013e+00|  5.5982e-09|  7.6103e-01|  5.0000e-01|  5.0000e-01|  5.0000e-01|   -5.183132|   -5.335598|   -5.940926|   -5.416254|   -5.475387|   -8.145679|    1.748829|
|          44|  8.3186e+00|  5.5981e-09|  7.6103e-01|  5.0000e-01|  5.0000e-01|  5.0000e-01|   -5.183034|   -5.335422|   -5.941130|   -5.416104|   -5.475158|   -8.145513|    1.748878|
|          45|  8.3324e+00|  5.5980e-09|  7.6103e-01|  5.0000e-01|  5.0000e-01|  5.0000e-01|   -5.182942|   -5.335252|   -5.941340|   -5.415961|   -5.474936|   -8.145348|    1.748926|
|          46|  8.3606e+00|  5.5979e-09|  7.6103e-01|  5.0000e-01|  5.0000e-01|  5.0000e-01|   -5.182854|   -5.335087|   -5.941556|   -5.415823|   -5.474719|   -8.145184|    1.748975|
|          47|  8.3816e+00|  5.5979e-09|  7.6103e-01|  5.0000e-01|  5.0000e-01|  5.0000e-01|   -5.182773|   -5.334928|   -5.941778|   -5.415692|   -5.474509|   -8.145021|    1.749024|
|          48|  8.3957e+00|  5.5978e-09|  7.6103e-01|  5.0000e-01|  5.0000e-01|  5.0000e-01|   -5.182699|   -5.334776|   -5.942007|   -5.415568|   -5.474308|   -8.144857|    1.749073|
|          49|  8.4100e+00|  5.5977e-09|  7.6103e-01|  5.0000e-01|  5.0000e-01|  5.0000e-01|   -5.182631|   -5.334631|   -5.942242|   -5.415451|   -5.474113|   -8.144695|    1.749123|
|          50|  8.4236e+00|  5.5976e-09|  7.6103e-01|  5.0000e-01|  5.0000e-01|  5.0000e-01|   -5.182571|   -5.334493|   -5.942483|   -5.415343|   -5.473928|   -8.144532|    1.749172|
|          51|  8.4307e+00|  5.5975e-09|  7.6103e-01|  5.0000e-01|  5.0000e-01|  5.0000e-01|   -5.182519|   -5.334363|   -5.942730|   -5.415243|   -5.473752|   -8.144370|    1.749222|
|          52|  8.4478e+00|  5.5974e-09|  7.6103e-01|  5.0000e-01|  5.0000e-01|  5.0000e-01|   -5.182475|   -5.334242|   -5.942982|   -5.415152|   -5.473587|   -8.144208|    1.749272|
|          53|  8.4556e+00|  5.5973e-09|  7.6103e-01|  5.0000e-01|  5.0000e-01|  5.0000e-01|   -5.182440|   -5.334131|   -5.943239|   -5.415069|   -5.473431|   -8.144047|    1.749322|
|          54|  8.4639e+00|  5.5972e-09|  7.6103e-01|  5.0000e-01|  5.0000e-01|  5.0000e-01|   -5.182413|   -5.334028|   -5.943500|   -5.414996|   -5.473286|   -8.143885|    1.749373|
|          55|  8.4719e+00|  5.5972e-09|  7.6103e-01|  5.0000e-01|  5.0000e-01|  5.0000e-01|   -5.182395|   -5.333934|   -5.943767|   -5.414931|   -5.473151|   -8.143723|    1.749423|
|          56|  8.4829e+00|  5.5971e-09|  7.6103e-01|  5.0000e-01|  5.0000e-01|  5.0000e-01|   -5.182385|   -5.333850|   -5.944037|   -5.414875|   -5.473026|   -8.143562|    1.749474|
|          57|  8.4880e+00|  5.5970e-09|  7.6103e-01|  5.0000e-01|  5.0000e-01|  5.0000e-01|   -5.182385|   -5.333775|   -5.944311|   -5.414828|   -5.472911|   -8.143400|    1.749525|
|          58|  8.4957e+00|  5.5969e-09|  7.6103e-01|  5.0000e-01|  5.0000e-01|  5.0000e-01|   -5.182393|   -5.333710|   -5.944588|   -5.414789|   -5.472807|   -8.143238|    1.749576|
|          59|  8.5025e+00|  5.5968e-09|  7.6103e-01|  5.0000e-01|  5.0000e-01|  5.0000e-01|   -5.182410|   -5.333654|   -5.944870|   -5.414760|   -5.472713|   -8.143076|    1.749628|
|          60|  8.5129e+00|  5.5967e-09|  7.6103e-01|  5.0000e-01|  5.0000e-01|  5.0000e-01|   -5.182436|   -5.333608|   -5.945155|   -5.414739|   -5.472630|   -8.142914|    1.749679|
|          61|  8.5313e+00|  5.5966e-09|  7.6103e-01|  5.0000e-01|  5.0000e-01|  5.0000e-01|   -5.182472|   -5.333572|   -5.945445|   -5.414727|   -5.472557|   -8.142751|    1.749731|
|          62|  8.5408e+00|  5.5965e-09|  7.6103e-01|  5.0000e-01|  5.0000e-01|  5.0000e-01|   -5.182516|   -5.333545|   -5.945738|   -5.414724|   -5.472495|   -8.142588|    1.749783|
|          63|  8.5463e+00|  5.5964e-09|  7.6103e-01|  5.0000e-01|  5.0000e-01|  5.0000e-01|   -5.182571|   -5.333529|   -5.946035|   -5.414731|   -5.472444|   -8.142425|    1.749835|
|          64|  8.5518e+00|  5.5964e-09|  7.6103e-01|  5.0000e-01|  5.0000e-01|  5.0000e-01|   -5.182634|   -5.333523|   -5.946336|   -5.414747|   -5.472403|   -8.142262|    1.749888|
|          65|  8.5606e+00|  5.5963e-09|  7.6103e-01|  5.0000e-01|  5.0000e-01|  5.0000e-01|   -5.182707|   -5.333526|   -5.946640|   -5.414771|   -5.472372|   -8.142098|    1.749940|
|          66|  8.5646e+00|  5.5962e-09|  7.6103e-01|  5.0000e-01|  5.0000e-01|  5.0000e-01|   -5.182789|   -5.333539|   -5.946947|   -5.414803|   -5.472351|   -8.141934|    1.749993|
|          67|  8.5678e+00|  5.5961e-09|  7.6103e-01|  5.0000e-01|  5.0000e-01|  5.0000e-01|   -5.182879|   -5.333562|   -5.947258|   -5.414844|   -5.472339|   -8.141769|    1.750046|
|          68|  8.5699e+00|  5.5960e-09|  7.6103e-01|  5.0000e-01|  5.0000e-01|  5.0000e-01|   -5.182978|   -5.333593|   -5.947574|   -5.414892|   -5.472336|   -8.141603|    1.750099|
|          69|  8.5730e+00|  5.5959e-09|  7.6103e-01|  5.0000e-01|  5.0000e-01|  5.0000e-01|   -5.183086|   -5.333635|   -5.947893|   -5.414949|   -5.472343|   -8.141438|    1.750152|
|          70|  8.5753e+00|  5.5958e-09|  7.6103e-01|  5.0000e-01|  5.0000e-01|  5.0000e-01|   -5.183203|   -5.333687|   -5.948216|   -5.415015|   -5.472360|   -8.141271|    1.750206|
|          71|  8.5768e+00|  5.5957e-09|  7.6103e-01|  5.0000e-01|  5.0000e-01|  5.0000e-01|   -5.183330|   -5.333748|   -5.948544|   -5.415090|   -5.472386|   -8.141104|    1.750259|
|          72|  8.5775e+00|  5.5956e-09|  7.6103e-01|  5.0000e-01|  5.0000e-01|  5.0000e-01|   -5.183466|   -5.333819|   -5.948874|   -5.415173|   -5.472422|   -8.140937|    1.750313|
|          73|  8.5789e+00|  5.5955e-09|  7.6103e-01|  5.0000e-01|  5.0000e-01|  5.0000e-01|   -5.183611|   -5.333899|   -5.949207|   -5.415265|   -5.472468|   -8.140769|    1.750367|
|          74|  8.5854e+00|  5.5954e-09|  7.6103e-01|  5.0000e-01|  5.0000e-01|  5.0000e-01|   -5.183764|   -5.333988|   -5.949544|   -5.415365|   -5.472522|   -8.140599|    1.750422|
|          75|  8.5928e+00|  5.5953e-09|  7.6103e-01|  5.0000e-01|  5.0000e-01|  5.0000e-01|   -5.183927|   -5.334087|   -5.949885|   -5.415474|   -5.472585|   -8.140429|    1.750476|
|          76|  8.6012e+00|  5.5952e-09|  7.6103e-01|  5.0000e-01|  5.0000e-01|  5.0000e-01|   -5.184099|   -5.334196|   -5.950231|   -5.415592|   -5.472658|   -8.140258|    1.750531|
|          77|  8.6108e+00|  5.5951e-09|  7.6103e-01|  5.0000e-01|  5.0000e-01|  5.0000e-01|   -5.184280|   -5.334313|   -5.950579|   -5.415718|   -5.472740|   -8.140086|    1.750585|
|          78|  8.6182e+00|  5.5950e-09|  7.6103e-01|  5.0000e-01|  5.0000e-01|  5.0000e-01|   -5.184469|   -5.334439|   -5.950932|   -5.415852|   -5.472830|   -8.139913|    1.750640|
|          79|  8.6276e+00|  5.5949e-09|  7.6103e-01|  5.0000e-01|  5.0000e-01|  5.0000e-01|   -5.184666|   -5.334573|   -5.951288|   -5.415992|   -5.472927|   -8.139740|    1.750695|
|          80|  8.6355e+00|  5.5948e-09|  7.6103e-01|  5.0000e-01|  5.0000e-01|  5.0000e-01|   -5.184871|   -5.334715|   -5.951648|   -5.416140|   -5.473031|   -8.139566|    1.750751|
|          81|  8.6389e+00|  5.5947e-09|  7.6103e-01|  5.0000e-01|  5.0000e-01|  5.0000e-01|   -5.185084|   -5.334866|   -5.952010|   -5.416295|   -5.473144|   -8.139391|    1.750806|
|          82|  8.6441e+00|  5.5947e-09|  7.6103e-01|  5.0000e-01|  5.0000e-01|  5.0000e-01|   -5.185306|   -5.335026|   -5.952376|   -5.416459|   -5.473265|   -8.139215|    1.750862|
|          83|  8.6472e+00|  5.5946e-09|  7.6103e-01|  5.0000e-01|  5.0000e-01|  5.0000e-01|   -5.185536|   -5.335194|   -5.952744|   -5.416630|   -5.473393|   -8.139038|    1.750918|
|          84|  8.6528e+00|  5.5945e-09|  7.6103e-01|  5.0000e-01|  5.0000e-01|  5.0000e-01|   -5.185773|   -5.335370|   -5.953115|   -5.416809|   -5.473529|   -8.138860|    1.750974|
|          85|  8.6538e+00|  5.5944e-09|  7.6103e-01|  5.0000e-01|  5.0000e-01|  5.0000e-01|   -5.186019|   -5.335555|   -5.953489|   -5.416996|   -5.473672|   -8.138682|    1.751030|
|          86|  8.6552e+00|  5.5943e-09|  7.6103e-01|  5.0000e-01|  5.0000e-01|  5.0000e-01|   -5.186274|   -5.335747|   -5.953867|   -5.417191|   -5.473824|   -8.138502|    1.751086|
|          87|  8.6556e+00|  5.5942e-09|  7.6103e-01|  5.0000e-01|  5.0000e-01|  5.0000e-01|   -5.186536|   -5.335949|   -5.954248|   -5.417394|   -5.473983|   -8.138322|    1.751143|
|          88|  8.6546e+00|  5.5941e-09|  7.6103e-01|  5.0000e-01|  5.0000e-01|  5.0000e-01|   -5.186807|   -5.336158|   -5.954632|   -5.417605|   -5.474150|   -8.138140|    1.751200|
|          89|  8.6544e+00|  5.5940e-09|  7.6103e-01|  5.0000e-01|  5.0000e-01|  5.0000e-01|   -5.187086|   -5.336375|   -5.955020|   -5.417824|   -5.474324|   -8.137958|    1.751257|
|          90|  8.6535e+00|  5.5939e-09|  7.6103e-01|  5.0000e-01|  5.0000e-01|  5.0000e-01|   -5.187372|   -5.336600|   -5.955410|   -5.418049|   -5.474505|   -8.137774|    1.751314|
|          91|  8.6528e+00|  5.5938e-09|  7.6103e-01|  5.0000e-01|  5.0000e-01|  5.0000e-01|   -5.187666|   -5.336833|   -5.955804|   -5.418281|   -5.474692|   -8.137589|    1.751371|
|          92|  8.6528e+00|  5.5936e-09|  7.6103e-01|  5.0000e-01|  5.0000e-01|  5.0000e-01|   -5.187967|   -5.337074|   -5.956201|   -5.418521|   -5.474887|   -8.137403|    1.751428|
|          93|  8.6512e+00|  5.5935e-09|  7.6103e-01|  5.0000e-01|  5.0000e-01|  5.0000e-01|   -5.188276|   -5.337322|   -5.956600|   -5.418768|   -5.475088|   -8.137216|    1.751486|
|          94|  8.6515e+00|  5.5934e-09|  7.6103e-01|  5.0000e-01|  5.0000e-01|  5.0000e-01|   -5.188592|   -5.337577|   -5.957002|   -5.419022|   -5.475296|   -8.137028|    1.751543|
|          95|  8.6525e+00|  5.5933e-09|  7.6103e-01|  5.0000e-01|  5.0000e-01|  5.0000e-01|   -5.188915|   -5.337840|   -5.957407|   -5.419282|   -5.475509|   -8.136838|    1.751601|
|          96|  8.6527e+00|  5.5932e-09|  7.6103e-01|  5.0000e-01|  5.0000e-01|  5.0000e-01|   -5.189246|   -5.338111|   -5.957815|   -5.419549|   -5.475729|   -8.136647|    1.751659|
|          97|  8.6518e+00|  5.5931e-09|  7.6103e-01|  5.0000e-01|  5.0000e-01|  5.0000e-01|   -5.189583|   -5.338389|   -5.958225|   -5.419823|   -5.475956|   -8.136455|    1.751718|
|          98|  8.6513e+00|  5.5930e-09|  7.6103e-01|  5.0000e-01|  5.0000e-01|  5.0000e-01|   -5.189929|   -5.338675|   -5.958639|   -5.420105|   -5.476190|   -8.136262|    1.751776|
|          99|  8.6520e+00|  5.5929e-09|  7.6103e-01|  5.0000e-01|  5.0000e-01|  5.0000e-01|   -5.190282|   -5.338968|   -5.959056|   -5.420393|   -5.476429|   -8.136067|    1.751834|
|         100|  8.6520e+00|  5.5928e-09|  7.6103e-01|  5.0000e-01|  5.0000e-01|  5.0000e-01|   -5.190641|   -5.339268|   -5.959474|   -5.420688|   -5.476675|   -8.135871|    1.751893|
|         101|  8.6546e+00|  5.5927e-09|  7.6103e-01|  5.0000e-01|  5.0000e-01|  5.0000e-01|   -5.191007|   -5.339575|   -5.959894|   -5.420989|   -5.476926|   -8.135674|    1.751952|
|         102|  8.6545e+00|  5.5926e-09|  7.6103e-01|  5.0000e-01|  5.0000e-01|  5.0000e-01|   -5.191380|   -5.339890|   -5.960316|   -5.421296|   -5.477183|   -8.135475|    1.752011|
|         103|  8.6554e+00|  5.5925e-09|  7.6103e-01|  5.0000e-01|  5.0000e-01|  5.0000e-01|   -5.191760|   -5.340211|   -5.960741|   -5.421610|   -5.477446|   -8.135275|    1.752070|
|         104|  8.6551e+00|  5.5924e-09|  7.6103e-01|  5.0000e-01|  5.0000e-01|  5.0000e-01|   -5.192146|   -5.340540|   -5.961167|   -5.421929|   -5.477714|   -8.135073|    1.752129|
|         105|  8.6540e+00|  5.5923e-09|  7.6103e-01|  5.0000e-01|  5.0000e-01|  5.0000e-01|   -5.192538|   -5.340875|   -5.961596|   -5.422254|   -5.477988|   -8.134870|    1.752189|
|         106|  8.6540e+00|  5.5922e-09|  7.6103e-01|  5.0000e-01|  5.0000e-01|  5.0000e-01|   -5.192938|   -5.341218|   -5.962027|   -5.422586|   -5.478268|   -8.134666|    1.752248|
|         107|  8.6535e+00|  5.5921e-09|  7.6103e-01|  5.0000e-01|  5.0000e-01|  5.0000e-01|   -5.193344|   -5.341568|   -5.962460|   -5.422924|   -5.478553|   -8.134460|    1.752308|
|         108|  8.6538e+00|  5.5920e-09|  7.6103e-01|  5.0000e-01|  5.0000e-01|  5.0000e-01|   -5.193757|   -5.341925|   -5.962895|   -5.423267|   -5.478845|   -8.134253|    1.752368|
|         109|  8.6535e+00|  5.5919e-09|  7.6103e-01|  5.0000e-01|  5.0000e-01|  5.0000e-01|   -5.194176|   -5.342289|   -5.963331|   -5.423616|   -5.479142|   -8.134045|    1.752428|
|         110|  8.6538e+00|  5.5918e-09|  7.6103e-01|  5.0000e-01|  5.0000e-01|  5.0000e-01|   -5.194602|   -5.342660|   -5.963770|   -5.423971|   -5.479444|   -8.133837|    1.752488|
|         111|  8.6543e+00|  5.5916e-09|  7.6103e-01|  5.0000e-01|  5.0000e-01|  5.0000e-01|   -5.195034|   -5.343038|   -5.964210|   -5.424332|   -5.479751|   -8.133627|    1.752548|
|         112|  8.6537e+00|  5.5915e-09|  7.6103e-01|  5.0000e-01|  5.0000e-01|  5.0000e-01|   -5.195473|   -5.343423|   -5.964653|   -5.424698|   -5.480064|   -8.133416|    1.752609|
|         113|  8.6541e+00|  5.5914e-09|  7.6103e-01|  5.0000e-01|  5.0000e-01|  5.0000e-01|   -5.195918|   -5.343816|   -5.965097|   -5.425070|   -5.480383|   -8.133204|    1.752669|
|         114|  8.6578e+00|  5.5913e-09|  7.6103e-01|  5.0000e-01|  5.0000e-01|  5.0000e-01|   -5.196369|   -5.344214|   -5.965542|   -5.425447|   -5.480707|   -8.132991|    1.752730|
|         115|  8.6637e+00|  5.5912e-09|  7.6103e-01|  5.0000e-01|  5.0000e-01|  5.0000e-01|   -5.196827|   -5.344620|   -5.965989|   -5.425830|   -5.481036|   -8.132776|    1.752791|
|         116|  8.6672e+00|  5.5911e-09|  7.6103e-01|  5.0000e-01|  5.0000e-01|  5.0000e-01|   -5.197291|   -5.345032|   -5.966437|   -5.426219|   -5.481370|   -8.132560|    1.752852|
|         117|  8.6680e+00|  5.5910e-09|  7.6103e-01|  5.0000e-01|  5.0000e-01|  5.0000e-01|   -5.197760|   -5.345451|   -5.966886|   -5.426613|   -5.481710|   -8.132343|    1.752913|
|         118|  8.6703e+00|  5.5909e-09|  7.6103e-01|  5.0000e-01|  5.0000e-01|  5.0000e-01|   -5.198237|   -5.345877|   -5.967336|   -5.427013|   -5.482055|   -8.132124|    1.752974|
|         119|  8.6704e+00|  5.5908e-09|  7.6103e-01|  5.0000e-01|  5.0000e-01|  5.0000e-01|   -5.198719|   -5.346310|   -5.967788|   -5.427419|   -5.482406|   -8.131904|    1.753035|
|         120|  8.6700e+00|  5.5906e-09|  7.6103e-01|  5.0000e-01|  5.0000e-01|  5.0000e-01|   -5.199208|   -5.346750|   -5.968241|   -5.427830|   -5.482762|   -8.131681|    1.753097|
|         121|  8.6693e+00|  5.5905e-09|  7.6103e-01|  5.0000e-01|  5.0000e-01|  5.0000e-01|   -5.199703|   -5.347197|   -5.968695|   -5.428247|   -5.483123|   -8.131458|    1.753158|
|         122|  8.6697e+00|  5.5904e-09|  7.6103e-01|  5.0000e-01|  5.0000e-01|  5.0000e-01|   -5.200204|   -5.347649|   -5.969151|   -5.428669|   -5.483489|   -8.131232|    1.753220|
|         123|  8.6701e+00|  5.5903e-09|  7.6103e-01|  5.0000e-01|  5.0000e-01|  5.0000e-01|   -5.200710|   -5.348109|   -5.969609|   -5.429096|   -5.483861|   -8.131005|    1.753282|
|         124|  8.6693e+00|  5.5902e-09|  7.6103e-01|  5.0000e-01|  5.0000e-01|  5.0000e-01|   -5.201223|   -5.348576|   -5.970068|   -5.429529|   -5.484238|   -8.130777|    1.753343|
|         125|  8.6679e+00|  5.5901e-09|  7.6103e-01|  5.0000e-01|  5.0000e-01|  5.0000e-01|   -5.201743|   -5.349049|   -5.970528|   -5.429968|   -5.484621|   -8.130547|    1.753405|
|         126|  8.6669e+00|  5.5900e-09|  7.6103e-01|  5.0000e-01|  5.0000e-01|  5.0000e-01|   -5.202268|   -5.349529|   -5.970990|   -5.430412|   -5.485009|   -8.130315|    1.753468|
|         127|  8.6671e+00|  5.5899e-09|  7.6103e-01|  5.0000e-01|  5.0000e-01|  5.0000e-01|   -5.202799|   -5.350015|   -5.971453|   -5.430862|   -5.485402|   -8.130082|    1.753530|
|         128|  8.6671e+00|  5.5897e-09|  7.6103e-01|  5.0000e-01|  5.0000e-01|  5.0000e-01|   -5.203337|   -5.350508|   -5.971917|   -5.431317|   -5.485801|   -8.129846|    1.753592|
|         129|  8.6701e+00|  5.5896e-09|  7.6103e-01|  5.0000e-01|  5.0000e-01|  5.0000e-01|   -5.203881|   -5.351009|   -5.972382|   -5.431779|   -5.486205|   -8.129610|    1.753655|
|         130|  8.6729e+00|  5.5895e-09|  7.6103e-01|  5.0000e-01|  5.0000e-01|  5.0000e-01|   -5.204431|   -5.351515|   -5.972848|   -5.432246|   -5.486615|   -8.129371|    1.753717|
|         131|  8.6741e+00|  5.5894e-09|  7.6103e-01|  5.0000e-01|  5.0000e-01|  5.0000e-01|   -5.204986|   -5.352028|   -5.973315|   -5.432718|   -5.487030|   -8.129131|    1.753780|
|         132|  8.6751e+00|  5.5893e-09|  7.6103e-01|  5.0000e-01|  5.0000e-01|  5.0000e-01|   -5.205547|   -5.352547|   -5.973783|   -5.433194|   -5.487449|   -8.128889|    1.753843|
|         133|  8.6749e+00|  5.5892e-09|  7.6103e-01|  5.0000e-01|  5.0000e-01|  5.0000e-01|   -5.206114|   -5.353072|   -5.974251|   -5.433677|   -5.487874|   -8.128646|    1.753905|
|         134|  8.6754e+00|  5.5890e-09|  7.6103e-01|  5.0000e-01|  5.0000e-01|  5.0000e-01|   -5.206686|   -5.353603|   -5.974721|   -5.434164|   -5.488303|   -8.128401|    1.753968|
|         135|  8.6764e+00|  5.5889e-09|  7.6103e-01|  5.0000e-01|  5.0000e-01|  5.0000e-01|   -5.207264|   -5.354141|   -5.975191|   -5.434656|   -5.488738|   -8.128154|    1.754031|
|         136|  8.6772e+00|  5.5888e-09|  7.6103e-01|  5.0000e-01|  5.0000e-01|  5.0000e-01|   -5.207848|   -5.354684|   -5.975663|   -5.435154|   -5.489177|   -8.127906|    1.754094|
|         137|  8.6779e+00|  5.5887e-09|  7.6103e-01|  5.0000e-01|  5.0000e-01|  5.0000e-01|   -5.208437|   -5.355234|   -5.976136|   -5.435656|   -5.489621|   -8.127656|    1.754158|
|         138|  8.6771e+00|  5.5886e-09|  7.6103e-01|  5.0000e-01|  5.0000e-01|  5.0000e-01|   -5.209031|   -5.355789|   -5.976609|   -5.436163|   -5.490070|   -8.127404|    1.754221|
|         139|  8.6771e+00|  5.5884e-09|  7.6103e-01|  5.0000e-01|  5.0000e-01|  5.0000e-01|   -5.209631|   -5.356351|   -5.977083|   -5.436675|   -5.490523|   -8.127151|    1.754284|
|         140|  8.6774e+00|  5.5883e-09|  7.6103e-01|  5.0000e-01|  5.0000e-01|  5.0000e-01|   -5.210236|   -5.356919|   -5.977557|   -5.437192|   -5.490982|   -8.126896|    1.754348|
|         141|  8.6790e+00|  5.5882e-09|  7.6103e-01|  5.0000e-01|  5.0000e-01|  5.0000e-01|   -5.210847|   -5.357493|   -5.978032|   -5.437713|   -5.491445|   -8.126639|    1.754411|
|         142|  8.6794e+00|  5.5881e-09|  7.6103e-01|  5.0000e-01|  5.0000e-01|  5.0000e-01|   -5.211463|   -5.358073|   -5.978508|   -5.438240|   -5.491913|   -8.126381|    1.754475|
|         143|  8.6805e+00|  5.5880e-09|  7.6103e-01|  5.0000e-01|  5.0000e-01|  5.0000e-01|   -5.212084|   -5.358659|   -5.978984|   -5.438770|   -5.492385|   -8.126122|    1.754539|
|         144|  8.6806e+00|  5.5879e-09|  7.6103e-01|  5.0000e-01|  5.0000e-01|  5.0000e-01|   -5.212710|   -5.359250|   -5.979459|   -5.439305|   -5.492861|   -8.125861|    1.754602|
|         145|  8.6810e+00|  5.5877e-09|  7.6103e-01|  5.0000e-01|  5.0000e-01|  5.0000e-01|   -5.213341|   -5.359846|   -5.979935|   -5.439844|   -5.493341|   -8.125598|    1.754666|
|         146|  8.6817e+00|  5.5876e-09|  7.6103e-01|  5.0000e-01|  5.0000e-01|  5.0000e-01|   -5.213977|   -5.360449|   -5.980411|   -5.440389|   -5.493827|   -8.125334|    1.754730|
|         147|  8.6850e+00|  5.5875e-09|  7.6103e-01|  5.0000e-01|  5.0000e-01|  5.0000e-01|   -5.214619|   -5.361058|   -5.980888|   -5.440938|   -5.494317|   -8.125068|    1.754794|
|         148|  8.6846e+00|  5.5874e-09|  7.6103e-01|  5.0000e-01|  5.0000e-01|  5.0000e-01|   -5.215266|   -5.361672|   -5.981365|   -5.441492|   -5.494812|   -8.124801|    1.754858|
|         149|  8.6853e+00|  5.5872e-09|  7.6103e-01|  5.0000e-01|  5.0000e-01|  5.0000e-01|   -5.215918|   -5.362291|   -5.981842|   -5.442050|   -5.495311|   -8.124532|    1.754922|
|         150|  8.6850e+00|  5.5871e-09|  7.6103e-01|  5.0000e-01|  5.0000e-01|  5.0000e-01|   -5.216575|   -5.362917|   -5.982320|   -5.442613|   -5.495814|   -8.124262|    1.754986|
+-----------------------------------------------------------------------+
|        File Writing Summary       |              Filename             |
+-----------------------------------------------------------------------+
|SU2 binary restart                 |restart_flow.dat                   |
|Paraview                           |flow.vtu                           |
|Paraview surface                   |surface_flow.vtu                   |
+-----------------------------------------------------------------------+
+-------------------------------------------------------------------------------------------------------------------------------------------------------------------------------------+
|  Inner_Iter|   Time(sec)|      Min DT|      Max DT|     Min CFL|     Max CFL|     Avg CFL|    rms[Rho]|   rms[RhoU]|   rms[RhoV]|   rms[RhoW]|   rms[RhoE]|     rms[nu]|          CD|
+-------------------------------------------------------------------------------------------------------------------------------------------------------------------------------------+
|         151|  8.8423e+00|  5.5870e-09|  7.6103e-01|  5.0000e-01|  5.0000e-01|  5.0000e-01|   -5.217237|   -5.363548|   -5.982799|   -5.443182|   -5.496323|   -8.123990|    1.755051|
|         152|  8.8444e+00|  5.5869e-09|  7.6103e-01|  5.0000e-01|  5.0000e-01|  5.0000e-01|   -5.217906|   -5.364186|   -5.983279|   -5.443756|   -5.496837|   -8.123717|    1.755115|
|         153|  8.8461e+00|  5.5868e-09|  7.6103e-01|  5.0000e-01|  5.0000e-01|  5.0000e-01|   -5.218580|   -5.364829|   -5.983759|   -5.444336|   -5.497356|   -8.123443|    1.755179|
|         154|  8.8476e+00|  5.5866e-09|  7.6103e-01|  5.0000e-01|  5.0000e-01|  5.0000e-01|   -5.219261|   -5.365479|   -5.984240|   -5.444922|   -5.497880|   -8.123168|    1.755244|
|         155|  8.8493e+00|  5.5865e-09|  7.6103e-01|  5.0000e-01|  5.0000e-01|  5.0000e-01|   -5.219946|   -5.366135|   -5.984722|   -5.445512|   -5.498410|   -8.122891|    1.755308|
|         156|  8.8473e+00|  5.5864e-09|  7.6103e-01|  5.0000e-01|  5.0000e-01|  5.0000e-01|   -5.220637|   -5.366797|   -5.985202|   -5.446107|   -5.498944|   -8.122613|    1.755373|
|         157|  8.8442e+00|  5.5863e-09|  7.6103e-01|  5.0000e-01|  5.0000e-01|  5.0000e-01|   -5.221333|   -5.367465|   -5.985682|   -5.446707|   -5.499482|   -8.122333|    1.755437|
|         158|  8.8451e+00|  5.5861e-09|  7.6103e-01|  5.0000e-01|  5.0000e-01|  5.0000e-01|   -5.222035|   -5.368138|   -5.986163|   -5.447312|   -5.500026|   -8.122053|    1.755502|
|         159|  8.8426e+00|  5.5860e-09|  7.6103e-01|  5.0000e-01|  5.0000e-01|  5.0000e-01|   -5.222742|   -5.368818|   -5.986643|   -5.447923|   -5.500574|   -8.121771|    1.755566|
|         160|  8.8404e+00|  5.5859e-09|  7.6103e-01|  5.0000e-01|  5.0000e-01|  5.0000e-01|   -5.223454|   -5.369503|   -5.987123|   -5.448538|   -5.501127|   -8.121488|    1.755631|
|         161|  8.8375e+00|  5.5858e-09|  7.6103e-01|  5.0000e-01|  5.0000e-01|  5.0000e-01|   -5.224172|   -5.370194|   -5.987603|   -5.449158|   -5.501685|   -8.121204|    1.755696|
|         162|  8.8339e+00|  5.5856e-09|  7.6103e-01|  5.0000e-01|  5.0000e-01|  5.0000e-01|   -5.224895|   -5.370891|   -5.988084|   -5.449784|   -5.502247|   -8.120919|    1.755761|
|         163|  8.8306e+00|  5.5855e-09|  7.6103e-01|  5.0000e-01|  5.0000e-01|  5.0000e-01|   -5.225624|   -5.371594|   -5.988564|   -5.450414|   -5.502815|   -8.120632|    1.755825|
|         164|  8.8279e+00|  5.5854e-09|  7.6103e-01|  5.0000e-01|  5.0000e-01|  5.0000e-01|   -5.226357|   -5.372303|   -5.989044|   -5.451049|   -5.503387|   -8.120345|    1.755890|
|         165|  8.8244e+00|  5.5852e-09|  7.6103e-01|  5.0000e-01|  5.0000e-01|  5.0000e-01|   -5.227097|   -5.373017|   -5.989524|   -5.451689|   -5.503964|   -8.120057|    1.755955|
|         166|  8.8219e+00|  5.5851e-09|  7.6103e-01|  5.0000e-01|  5.0000e-01|  5.0000e-01|   -5.227842|   -5.373738|   -5.990004|   -5.452335|   -5.504547|   -8.119767|    1.756020|
|         167|  8.8202e+00|  5.5850e-09|  7.6103e-01|  5.0000e-01|  5.0000e-01|  5.0000e-01|   -5.228593|   -5.374465|   -5.990484|   -5.452986|   -5.505135|   -8.119477|    1.756085|
|         168|  8.8189e+00|  5.5849e-09|  7.6103e-01|  5.0000e-01|  5.0000e-01|  5.0000e-01|   -5.229349|   -5.375197|   -5.990963|   -5.453642|   -5.505727|   -8.119186|    1.756150|
|         169|  8.8175e+00|  5.5847e-09|  7.6103e-01|  5.0000e-01|  5.0000e-01|  5.0000e-01|   -5.230110|   -5.375935|   -5.991441|   -5.454303|   -5.506323|   -8.118894|    1.756215|
|         170|  8.8152e+00|  5.5846e-09|  7.6103e-01|  5.0000e-01|  5.0000e-01|  5.0000e-01|   -5.230876|   -5.376679|   -5.991919|   -5.454968|   -5.506925|   -8.118601|    1.756280|
|         171|  8.8120e+00|  5.5845e-09|  7.6103e-01|  5.0000e-01|  5.0000e-01|  5.0000e-01|   -5.231647|   -5.377429|   -5.992396|   -5.455638|   -5.507530|   -8.118307|    1.756345|
|         172|  8.8089e+00|  5.5843e-09|  7.6103e-01|  5.0000e-01|  5.0000e-01|  5.0000e-01|   -5.232423|   -5.378184|   -5.992872|   -5.456312|   -5.508140|   -8.118012|    1.756410|
|         173|  8.8074e+00|  5.5842e-09|  7.6103e-01|  5.0000e-01|  5.0000e-01|  5.0000e-01|   -5.233204|   -5.378944|   -5.993348|   -5.456991|   -5.508754|   -8.117717|    1.756475|
|         174|  8.8059e+00|  5.5841e-09|  7.6103e-01|  5.0000e-01|  5.0000e-01|  5.0000e-01|   -5.233990|   -5.379711|   -5.993824|   -5.457674|   -5.509373|   -8.117421|    1.756540|
|         175|  8.8032e+00|  5.5840e-09|  7.6103e-01|  5.0000e-01|  5.0000e-01|  5.0000e-01|   -5.234781|   -5.380482|   -5.994298|   -5.458361|   -5.509996|   -8.117124|    1.756605|
|         176|  8.8009e+00|  5.5838e-09|  7.6103e-01|  5.0000e-01|  5.0000e-01|  5.0000e-01|   -5.235577|   -5.381260|   -5.994771|   -5.459052|   -5.510623|   -8.116827|    1.756670|
|         177|  8.7982e+00|  5.5837e-09|  7.6103e-01|  5.0000e-01|  5.0000e-01|  5.0000e-01|   -5.236378|   -5.382042|   -5.995243|   -5.459748|   -5.511254|   -8.116529|    1.756735|
|         178|  8.7960e+00|  5.5836e-09|  7.6103e-01|  5.0000e-01|  5.0000e-01|  5.0000e-01|   -5.237183|   -5.382831|   -5.995715|   -5.460449|   -5.511890|   -8.116231|    1.756801|
|         179|  8.7933e+00|  5.5834e-09|  7.6103e-01|  5.0000e-01|  5.0000e-01|  5.0000e-01|   -5.237993|   -5.383625|   -5.996186|   -5.461153|   -5.512529|   -8.115932|    1.756866|
|         180|  8.7922e+00|  5.5833e-09|  7.6103e-01|  5.0000e-01|  5.0000e-01|  5.0000e-01|   -5.238807|   -5.384424|   -5.996655|   -5.461861|   -5.513173|   -8.115632|    1.756931|
|         181|  8.7924e+00|  5.5832e-09|  7.6103e-01|  5.0000e-01|  5.0000e-01|  5.0000e-01|   -5.239626|   -5.385229|   -5.997125|   -5.462574|   -5.513821|   -8.115333|    1.756996|
|         182|  8.7915e+00|  5.5830e-09|  7.6103e-01|  5.0000e-01|  5.0000e-01|  5.0000e-01|   -5.240450|   -5.386039|   -5.997593|   -5.463291|   -5.514472|   -8.115032|    1.757061|
|         183|  8.7888e+00|  5.5829e-09|  7.6103e-01|  5.0000e-01|  5.0000e-01|  5.0000e-01|   -5.241278|   -5.386854|   -5.998060|   -5.464011|   -5.515128|   -8.114732|    1.757126|
|         184|  8.7866e+00|  5.5828e-09|  7.6103e-01|  5.0000e-01|  5.0000e-01|  5.0000e-01|   -5.242111|   -5.387675|   -5.998525|   -5.464736|   -5.515787|   -8.114431|    1.757192|
|         185|  8.7858e+00|  5.5826e-09|  7.6103e-01|  5.0000e-01|  5.0000e-01|  5.0000e-01|   -5.242948|   -5.388502|   -5.998989|   -5.465465|   -5.516451|   -8.114131|    1.757257|
|         186|  8.7849e+00|  5.5825e-09|  7.6103e-01|  5.0000e-01|  5.0000e-01|  5.0000e-01|   -5.243790|   -5.389333|   -5.999452|   -5.466198|   -5.517119|   -8.113830|    1.757322|
|         187|  8.7825e+00|  5.5824e-09|  7.6103e-01|  5.0000e-01|  5.0000e-01|  5.0000e-01|   -5.244635|   -5.390170|   -5.999913|   -5.466934|   -5.517789|   -8.113528|    1.757387|
|         188|  8.7803e+00|  5.5822e-09|  7.6103e-01|  5.0000e-01|  5.0000e-01|  5.0000e-01|   -5.245485|   -5.391012|   -6.000373|   -5.467674|   -5.518464|   -8.113227|    1.757452|
|         189|  8.7785e+00|  5.5821e-09|  7.6103e-01|  5.0000e-01|  5.0000e-01|  5.0000e-01|   -5.246339|   -5.391859|   -6.000832|   -5.468418|   -5.519142|   -8.112926|    1.757518|
|         190|  8.7755e+00|  5.5820e-09|  7.6103e-01|  5.0000e-01|  5.0000e-01|  5.0000e-01|   -5.247198|   -5.392711|   -6.001290|   -5.469166|   -5.519825|   -8.112624|    1.757583|
|         191|  8.7735e+00|  5.5818e-09|  7.6103e-01|  5.0000e-01|  5.0000e-01|  5.0000e-01|   -5.248062|   -5.393569|   -6.001748|   -5.469918|   -5.520512|   -8.112323|    1.757648|
|         192|  8.7715e+00|  5.5817e-09|  7.6103e-01|  5.0000e-01|  5.0000e-01|  5.0000e-01|   -5.248930|   -5.394432|   -6.002205|   -5.470675|   -5.521203|   -8.112021|    1.757713|
|         193|  8.7695e+00|  5.5816e-09|  7.6103e-01|  5.0000e-01|  5.0000e-01|  5.0000e-01|   -5.249803|   -5.395301|   -6.002661|   -5.471436|   -5.521899|   -8.111720|    1.757778|
|         194|  8.7679e+00|  5.5814e-09|  7.6103e-01|  5.0000e-01|  5.0000e-01|  5.0000e-01|   -5.250680|   -5.396175|   -6.003116|   -5.472200|   -5.522598|   -8.111419|    1.757843|
|         195|  8.7684e+00|  5.5813e-09|  7.6103e-01|  5.0000e-01|  5.0000e-01|  5.0000e-01|   -5.251562|   -5.397054|   -6.003569|   -5.472969|   -5.523301|   -8.111118|    1.757908|
|         196|  8.7667e+00|  5.5811e-09|  7.6103e-01|  5.0000e-01|  5.0000e-01|  5.0000e-01|   -5.252448|   -5.397939|   -6.004021|   -5.473741|   -5.524008|   -8.110817|    1.757974|
|         197|  8.7656e+00|  5.5810e-09|  7.6103e-01|  5.0000e-01|  5.0000e-01|  5.0000e-01|   -5.253339|   -5.398829|   -6.004472|   -5.474517|   -5.524719|   -8.110517|    1.758039|
|         198|  8.7641e+00|  5.5809e-09|  7.6103e-01|  5.0000e-01|  5.0000e-01|  5.0000e-01|   -5.254234|   -5.399725|   -6.004921|   -5.475297|   -5.525434|   -8.110217|    1.758104|
|         199|  8.7626e+00|  5.5807e-09|  7.6103e-01|  5.0000e-01|  5.0000e-01|  5.0000e-01|   -5.255133|   -5.400626|   -6.005369|   -5.476081|   -5.526153|   -8.109917|    1.758169|
|         200|  8.7603e+00|  5.5806e-09|  7.6103e-01|  5.0000e-01|  5.0000e-01|  5.0000e-01|   -5.256036|   -5.401533|   -6.005814|   -5.476868|   -5.526875|   -8.109617|    1.758234|
|         201|  8.7576e+00|  5.5805e-09|  7.6103e-01|  5.0000e-01|  5.0000e-01|  5.0000e-01|   -5.256944|   -5.402444|   -6.006258|   -5.477659|   -5.527601|   -8.109318|    1.758299|
|         202|  8.7556e+00|  5.5803e-09|  7.6103e-01|  5.0000e-01|  5.0000e-01|  5.0000e-01|   -5.257856|   -5.403361|   -6.006701|   -5.478453|   -5.528331|   -8.109020|    1.758364|
|         203|  8.7542e+00|  5.5802e-09|  7.6103e-01|  5.0000e-01|  5.0000e-01|  5.0000e-01|   -5.258772|   -5.404283|   -6.007141|   -5.479251|   -5.529065|   -8.108722|    1.758429|
|         204|  8.7518e+00|  5.5800e-09|  7.6103e-01|  5.0000e-01|  5.0000e-01|  5.0000e-01|   -5.259692|   -5.405211|   -6.007580|   -5.480052|   -5.529802|   -8.108424|    1.758494|
|         205|  8.7495e+00|  5.5799e-09|  7.6103e-01|  5.0000e-01|  5.0000e-01|  5.0000e-01|   -5.260616|   -5.406143|   -6.008018|   -5.480857|   -5.530542|   -8.108127|    1.758558|
|         206|  8.7476e+00|  5.5798e-09|  7.6103e-01|  5.0000e-01|  5.0000e-01|  5.0000e-01|   -5.261544|   -5.407081|   -6.008454|   -5.481664|   -5.531286|   -8.107831|    1.758623|
|         207|  8.7457e+00|  5.5796e-09|  7.6103e-01|  5.0000e-01|  5.0000e-01|  5.0000e-01|   -5.262475|   -5.408023|   -6.008887|   -5.482475|   -5.532033|   -8.107535|    1.758688|
|         208|  8.7435e+00|  5.5795e-09|  7.6103e-01|  5.0000e-01|  5.0000e-01|  5.0000e-01|   -5.263410|   -5.408970|   -6.009319|   -5.483288|   -5.532783|   -8.107240|    1.758753|
|         209|  8.7416e+00|  5.5793e-09|  7.6103e-01|  5.0000e-01|  5.0000e-01|  5.0000e-01|   -5.264348|   -5.409922|   -6.009749|   -5.484105|   -5.533537|   -8.106946|    1.758818|
|         210|  8.7401e+00|  5.5792e-09|  7.6103e-01|  5.0000e-01|  5.0000e-01|  5.0000e-01|   -5.265291|   -5.410879|   -6.010177|   -5.484925|   -5.534294|   -8.106652|    1.758882|
|         211|  8.7387e+00|  5.5791e-09|  7.6103e-01|  5.0000e-01|  5.0000e-01|  5.0000e-01|   -5.266237|   -5.411841|   -6.010603|   -5.485748|   -5.535054|   -8.106360|    1.758947|
|         212|  8.7365e+00|  5.5789e-09|  7.6103e-01|  5.0000e-01|  5.0000e-01|  5.0000e-01|   -5.267187|   -5.412808|   -6.011027|   -5.486574|   -5.535817|   -8.106068|    1.759012|
|         213|  8.7340e+00|  5.5788e-09|  7.6103e-01|  5.0000e-01|  5.0000e-01|  5.0000e-01|   -5.268140|   -5.413779|   -6.011449|   -5.487402|   -5.536583|   -8.105777|    1.759076|
|         214|  8.7319e+00|  5.5786e-09|  7.6103e-01|  5.0000e-01|  5.0000e-01|  5.0000e-01|   -5.269096|   -5.414753|   -6.011869|   -5.488234|   -5.537352|   -8.105487|    1.759141|
|         215|  8.7303e+00|  5.5785e-09|  7.6103e-01|  5.0000e-01|  5.0000e-01|  5.0000e-01|   -5.270056|   -5.415732|   -6.012287|   -5.489068|   -5.538124|   -8.105198|    1.759205|
|         216|  8.7277e+00|  5.5784e-09|  7.6103e-01|  5.0000e-01|  5.0000e-01|  5.0000e-01|   -5.271019|   -5.416716|   -6.012703|   -5.489904|   -5.538898|   -8.104910|    1.759270|
|         217|  8.7262e+00|  5.5782e-09|  7.6103e-01|  5.0000e-01|  5.0000e-01|  5.0000e-01|   -5.271985|   -5.417704|   -6.013117|   -5.490744|   -5.539676|   -8.104624|    1.759334|
|         218|  8.7237e+00|  5.5781e-09|  7.6103e-01|  5.0000e-01|  5.0000e-01|  5.0000e-01|   -5.272955|   -5.418696|   -6.013530|   -5.491587|   -5.540456|   -8.104338|    1.759399|
|         219|  8.7224e+00|  5.5779e-09|  7.6103e-01|  5.0000e-01|  5.0000e-01|  5.0000e-01|   -5.273927|   -5.419692|   -6.013940|   -5.492432|   -5.541239|   -8.104053|    1.759463|
|         220|  8.7208e+00|  5.5778e-09|  7.6103e-01|  5.0000e-01|  5.0000e-01|  5.0000e-01|   -5.274902|   -5.420692|   -6.014348|   -5.493279|   -5.542024|   -8.103770|    1.759527|
|         221|  8.7193e+00|  5.5776e-09|  7.6103e-01|  5.0000e-01|  5.0000e-01|  5.0000e-01|   -5.275880|   -5.421696|   -6.014754|   -5.494128|   -5.542811|   -8.103488|    1.759591|
|         222|  8.7173e+00|  5.5775e-09|  7.6103e-01|  5.0000e-01|  5.0000e-01|  5.0000e-01|   -5.276860|   -5.422704|   -6.015157|   -5.494979|   -5.543600|   -8.103207|    1.759656|
|         223|  8.7163e+00|  5.5774e-09|  7.6103e-01|  5.0000e-01|  5.0000e-01|  5.0000e-01|   -5.277843|   -5.423715|   -6.015557|   -5.495832|   -5.544392|   -8.102928|    1.759720|
|         224|  8.7135e+00|  5.5772e-09|  7.6103e-01|  5.0000e-01|  5.0000e-01|  5.0000e-01|   -5.278829|   -5.424730|   -6.015956|   -5.496687|   -5.545185|   -8.102649|    1.759784|
|         225|  8.7114e+00|  5.5771e-09|  7.6103e-01|  5.0000e-01|  5.0000e-01|  5.0000e-01|   -5.279813|   -5.425745|   -6.016351|   -5.497540|   -5.545977|   -8.102372|    1.759848|
|         226|  8.7097e+00|  5.5769e-09|  7.6103e-01|  5.0000e-01|  5.0000e-01|  5.0000e-01|   -5.280799|   -5.426764|   -6.016743|   -5.498394|   -5.546770|   -8.102097|    1.759912|
|         227|  8.7076e+00|  5.5768e-09|  7.6103e-01|  5.0000e-01|  5.0000e-01|  5.0000e-01|   -5.281788|   -5.427786|   -6.017134|   -5.499250|   -5.547566|   -8.101823|    1.759976|
|         228|  8.7061e+00|  5.5766e-09|  7.6103e-01|  5.0000e-01|  5.0000e-01|  5.0000e-01|   -5.282779|   -5.428812|   -6.017521|   -5.500109|   -5.548363|   -8.101550|    1.760039|
|         229|  8.7041e+00|  5.5765e-09|  7.6103e-01|  5.0000e-01|  5.0000e-01|  5.0000e-01|   -5.283774|   -5.429842|   -6.017907|   -5.500971|   -5.549164|   -8.101279|    1.760103|
|         230|  8.7025e+00|  5.5763e-09|  7.6103e-01|  5.0000e-01|  5.0000e-01|  5.0000e-01|   -5.284770|   -5.430875|   -6.018290|   -5.501834|   -5.549966|   -8.101009|    1.760167|
|         231|  8.7014e+00|  5.5762e-09|  7.6103e-01|  5.0000e-01|  5.0000e-01|  5.0000e-01|   -5.285769|   -5.431911|   -6.018670|   -5.502700|   -5.550770|   -8.100741|    1.760230|
|         232|  8.6998e+00|  5.5760e-09|  7.6103e-01|  5.0000e-01|  5.0000e-01|  5.0000e-01|   -5.286770|   -5.432950|   -6.019048|   -5.503567|   -5.551576|   -8.100475|    1.760294|
|         233|  8.6982e+00|  5.5759e-09|  7.6103e-01|  5.0000e-01|  5.0000e-01|  5.0000e-01|   -5.287774|   -5.433993|   -6.019424|   -5.504437|   -5.552384|   -8.100210|    1.760357|
|         234|  8.6972e+00|  5.5758e-09|  7.6103e-01|  5.0000e-01|  5.0000e-01|  5.0000e-01|   -5.288780|   -5.435039|   -6.019797|   -5.505308|   -5.553194|   -8.099947|    1.760421|
|         235|  8.6959e+00|  5.5756e-09|  7.6103e-01|  5.0000e-01|  5.0000e-01|  5.0000e-01|   -5.289788|   -5.436088|   -6.020168|   -5.506181|   -5.554006|   -8.099686|    1.760484|
|         236|  8.6942e+00|  5.5755e-09|  7.6103e-01|  5.0000e-01|  5.0000e-01|  5.0000e-01|   -5.290798|   -5.437141|   -6.020536|   -5.507056|   -5.554820|   -8.099426|    1.760547|
|         237|  8.6926e+00|  5.5753e-09|  7.6103e-01|  5.0000e-01|  5.0000e-01|  5.0000e-01|   -5.291810|   -5.438196|   -6.020902|   -5.507933|   -5.555635|   -8.099168|    1.760610|
|         238|  8.6912e+00|  5.5752e-09|  7.6103e-01|  5.0000e-01|  5.0000e-01|  5.0000e-01|   -5.292824|   -5.439254|   -6.021265|   -5.508811|   -5.556453|   -8.098912|    1.760673|
|         239|  8.6892e+00|  5.5750e-09|  7.6103e-01|  5.0000e-01|  5.0000e-01|  5.0000e-01|   -5.293840|   -5.440316|   -6.021625|   -5.509691|   -5.557271|   -8.098658|    1.760736|
|         240|  8.6866e+00|  5.5749e-09|  7.6103e-01|  5.0000e-01|  5.0000e-01|  5.0000e-01|   -5.294857|   -5.441380|   -6.021982|   -5.510572|   -5.558091|   -8.098405|    1.760799|
|         241|  8.6850e+00|  5.5747e-09|  7.6103e-01|  5.0000e-01|  5.0000e-01|  5.0000e-01|   -5.295877|   -5.442447|   -6.022337|   -5.511455|   -5.558913|   -8.098155|    1.760862|
|         242|  8.6832e+00|  5.5746e-09|  7.6103e-01|  5.0000e-01|  5.0000e-01|  5.0000e-01|   -5.296899|   -5.443518|   -6.022689|   -5.512340|   -5.559736|   -8.097906|    1.760925|
|         243|  8.6810e+00|  5.5744e-09|  7.6103e-01|  5.0000e-01|  5.0000e-01|  5.0000e-01|   -5.297922|   -5.444591|   -6.023038|   -5.513226|   -5.560561|   -8.097660|    1.760987|
|         244|  8.6787e+00|  5.5743e-09|  7.6103e-01|  5.0000e-01|  5.0000e-01|  5.0000e-01|   -5.298947|   -5.445666|   -6.023384|   -5.514113|   -5.561387|   -8.097415|    1.761050|
|         245|  8.6771e+00|  5.5741e-09|  7.6103e-01|  5.0000e-01|  5.0000e-01|  5.0000e-01|   -5.299973|   -5.446745|   -6.023727|   -5.515001|   -5.562215|   -8.097172|    1.761112|
|         246|  8.6756e+00|  5.5740e-09|  7.6103e-01|  5.0000e-01|  5.0000e-01|  5.0000e-01|   -5.301002|   -5.447827|   -6.024068|   -5.515891|   -5.563045|   -8.096931|    1.761174|
|         247|  8.6738e+00|  5.5738e-09|  7.6103e-01|  5.0000e-01|  5.0000e-01|  5.0000e-01|   -5.302031|   -5.448911|   -6.024406|   -5.516782|   -5.563875|   -8.096693|    1.761237|
|         248|  8.6722e+00|  5.5737e-09|  7.6103e-01|  5.0000e-01|  5.0000e-01|  5.0000e-01|   -5.303062|   -5.449997|   -6.024742|   -5.517674|   -5.564707|   -8.096456|    1.761299|
|         249|  8.6706e+00|  5.5735e-09|  7.6103e-01|  5.0000e-01|  5.0000e-01|  5.0000e-01|   -5.304094|   -5.451086|   -6.025075|   -5.518566|   -5.565540|   -8.096222|    1.761361|
|         250|  8.6692e+00|  5.5734e-09|  7.6103e-01|  5.0000e-01|  5.0000e-01|  5.0000e-01|   -5.305128|   -5.452177|   -6.025405|   -5.519461|   -5.566375|   -8.095990|    1.761423|
|         251|  8.6685e+00|  5.5732e-09|  7.6103e-01|  5.0000e-01|  5.0000e-01|  5.0000e-01|   -5.306163|   -5.453271|   -6.025732|   -5.520356|   -5.567211|   -8.095760|    1.761485|
|         252|  8.6679e+00|  5.5731e-09|  7.6103e-01|  5.0000e-01|  5.0000e-01|  5.0000e-01|   -5.307199|   -5.454368|   -6.026056|   -5.521253|   -5.568047|   -8.095532|    1.761546|
|         253|  8.6688e+00|  5.5729e-09|  7.6103e-01|  5.0000e-01|  5.0000e-01|  5.0000e-01|   -5.308236|   -5.455467|   -6.026376|   -5.522150|   -5.568885|   -8.095306|    1.761608|
|         254|  8.6679e+00|  5.5728e-09|  7.6103e-01|  5.0000e-01|  5.0000e-01|  5.0000e-01|   -5.309274|   -5.456569|   -6.026694|   -5.523048|   -5.569724|   -8.095083|    1.761669|
|         255|  8.6667e+00|  5.5726e-09|  7.6103e-01|  5.0000e-01|  5.0000e-01|  5.0000e-01|   -5.310313|   -5.457673|   -6.027007|   -5.523947|   -5.570565|   -8.094862|    1.761731|
|         256|  8.6661e+00|  5.5725e-09|  7.6103e-01|  5.0000e-01|  5.0000e-01|  5.0000e-01|   -5.311354|   -5.458780|   -6.027318|   -5.524847|   -5.571406|   -8.094643|    1.761792|
|         257|  8.6640e+00|  5.5723e-09|  7.6103e-01|  5.0000e-01|  5.0000e-01|  5.0000e-01|   -5.312395|   -5.459890|   -6.027625|   -5.525747|   -5.572249|   -8.094426|    1.761853|
|         258|  8.6622e+00|  5.5722e-09|  7.6103e-01|  5.0000e-01|  5.0000e-01|  5.0000e-01|   -5.313438|   -5.461002|   -6.027930|   -5.526649|   -5.573094|   -8.094212|    1.761914|
|         259|  8.6603e+00|  5.5720e-09|  7.6103e-01|  5.0000e-01|  5.0000e-01|  5.0000e-01|   -5.314482|   -5.462116|   -6.028230|   -5.527552|   -5.573939|   -8.094000|    1.761975|
|         260|  8.6585e+00|  5.5719e-09|  7.6103e-01|  5.0000e-01|  5.0000e-01|  5.0000e-01|   -5.315526|   -5.463233|   -6.028527|   -5.528455|   -5.574786|   -8.093791|    1.762036|
|         261|  8.6575e+00|  5.5717e-09|  7.6103e-01|  5.0000e-01|  5.0000e-01|  5.0000e-01|   -5.316571|   -5.464352|   -6.028820|   -5.529358|   -5.575633|   -8.093583|    1.762097|
|         262|  8.6562e+00|  5.5716e-09|  7.6103e-01|  5.0000e-01|  5.0000e-01|  5.0000e-01|   -5.317616|   -5.465473|   -6.029109|   -5.530262|   -5.576481|   -8.093379|    1.762157|
|         263|  8.6546e+00|  5.5714e-09|  7.6103e-01|  5.0000e-01|  5.0000e-01|  5.0000e-01|   -5.318662|   -5.466595|   -6.029394|   -5.531166|   -5.577329|   -8.093176|    1.762218|
|         264|  8.6535e+00|  5.5713e-09|  7.6103e-01|  5.0000e-01|  5.0000e-01|  5.0000e-01|   -5.319707|   -5.467720|   -6.029675|   -5.532069|   -5.578178|   -8.092976|    1.762278|
|         265|  8.6517e+00|  5.5711e-09|  7.6103e-01|  5.0000e-01|  5.0000e-01|  5.0000e-01|   -5.320753|   -5.468846|   -6.029953|   -5.532973|   -5.579027|   -8.092779|    1.762338|
|         266|  8.6505e+00|  5.5710e-09|  7.6103e-01|  5.0000e-01|  5.0000e-01|  5.0000e-01|   -5.321799|   -5.469974|   -6.030228|   -5.533876|   -5.579877|   -8.092584|    1.762398|
|         267|  8.6492e+00|  5.5708e-09|  7.6103e-01|  5.0000e-01|  5.0000e-01|  5.0000e-01|   -5.322844|   -5.471104|   -6.030498|   -5.534779|   -5.580727|   -8.092392|    1.762458|
|         268|  8.6476e+00|  5.5707e-09|  7.6103e-01|  5.0000e-01|  5.0000e-01|  5.0000e-01|   -5.323889|   -5.472235|   -6.030765|   -5.535682|   -5.581578|   -8.092202|    1.762518|
|         269|  8.6458e+00|  5.5705e-09|  7.6103e-01|  5.0000e-01|  5.0000e-01|  5.0000e-01|   -5.324934|   -5.473367|   -6.031028|   -5.536584|   -5.582429|   -8.092014|    1.762578|
|         270|  8.6449e+00|  5.5704e-09|  7.6103e-01|  5.0000e-01|  5.0000e-01|  5.0000e-01|   -5.325979|   -5.474501|   -6.031287|   -5.537486|   -5.583279|   -8.091829|    1.762637|
|         271|  8.6438e+00|  5.5702e-09|  7.6103e-01|  5.0000e-01|  5.0000e-01|  5.0000e-01|   -5.327023|   -5.475636|   -6.031543|   -5.538386|   -5.584130|   -8.091647|    1.762697|
|         272|  8.6425e+00|  5.5700e-09|  7.6103e-01|  5.0000e-01|  5.0000e-01|  5.0000e-01|   -5.328066|   -5.476772|   -6.031794|   -5.539286|   -5.584981|   -8.091467|    1.762756|
|         273|  8.6404e+00|  5.5699e-09|  7.6103e-01|  5.0000e-01|  5.0000e-01|  5.0000e-01|   -5.329108|   -5.477908|   -6.032041|   -5.540185|   -5.585831|   -8.091290|    1.762815|
|         274|  8.6388e+00|  5.5697e-09|  7.6103e-01|  5.0000e-01|  5.0000e-01|  5.0000e-01|   -5.330149|   -5.479046|   -6.032284|   -5.541083|   -5.586681|   -8.091115|    1.762874|
|         275|  8.6368e+00|  5.5696e-09|  7.6103e-01|  5.0000e-01|  5.0000e-01|  5.0000e-01|   -5.331189|   -5.480185|   -6.032523|   -5.541979|   -5.587531|   -8.090942|    1.762933|
|         276|  8.6361e+00|  5.5694e-09|  7.6103e-01|  5.0000e-01|  5.0000e-01|  5.0000e-01|   -5.332228|   -5.481324|   -6.032758|   -5.542875|   -5.588380|   -8.090773|    1.762991|
|         277|  8.6350e+00|  5.5693e-09|  7.6103e-01|  5.0000e-01|  5.0000e-01|  5.0000e-01|   -5.333266|   -5.482464|   -6.032989|   -5.543770|   -5.589229|   -8.090606|    1.763050|
|         278|  8.6335e+00|  5.5691e-09|  7.6103e-01|  5.0000e-01|  5.0000e-01|  5.0000e-01|   -5.334303|   -5.483604|   -6.033216|   -5.544663|   -5.590078|   -8.090442|    1.763108|
|         279|  8.6321e+00|  5.5690e-09|  7.6103e-01|  5.0000e-01|  5.0000e-01|  5.0000e-01|   -5.335338|   -5.484744|   -6.033439|   -5.545554|   -5.590926|   -8.090280|    1.763166|
|         280|  8.6307e+00|  5.5688e-09|  7.6103e-01|  5.0000e-01|  5.0000e-01|  5.0000e-01|   -5.336371|   -5.485885|   -6.033658|   -5.546444|   -5.591773|   -8.090121|    1.763225|
|         281|  8.6309e+00|  5.5687e-09|  7.6103e-01|  5.0000e-01|  5.0000e-01|  5.0000e-01|   -5.337404|   -5.487025|   -6.033873|   -5.547332|   -5.592620|   -8.089965|    1.763282|
|         282|  8.6306e+00|  5.5685e-09|  7.6103e-01|  5.0000e-01|  5.0000e-01|  5.0000e-01|   -5.338434|   -5.488166|   -6.034084|   -5.548218|   -5.593466|   -8.089812|    1.763340|
|         283|  8.6295e+00|  5.5683e-09|  7.6103e-01|  5.0000e-01|  5.0000e-01|  5.0000e-01|   -5.339462|   -5.489307|   -6.034290|   -5.549103|   -5.594310|   -8.089661|    1.763398|
|         284|  8.6285e+00|  5.5682e-09|  7.6103e-01|  5.0000e-01|  5.0000e-01|  5.0000e-01|   -5.340487|   -5.490447|   -6.034491|   -5.549986|   -5.595154|   -8.089513|    1.763455|
|         285|  8.6270e+00|  5.5680e-09|  7.6103e-01|  5.0000e-01|  5.0000e-01|  5.0000e-01|   -5.341511|   -5.491588|   -6.034688|   -5.550867|   -5.595996|   -8.089368|    1.763512|
|         286|  8.6261e+00|  5.5679e-09|  7.6103e-01|  5.0000e-01|  5.0000e-01|  5.0000e-01|   -5.342532|   -5.492727|   -6.034881|   -5.551745|   -5.596837|   -8.089225|    1.763570|
|         287|  8.6255e+00|  5.5677e-09|  7.6103e-01|  5.0000e-01|  5.0000e-01|  5.0000e-01|   -5.343550|   -5.493866|   -6.035070|   -5.552621|   -5.597677|   -8.089085|    1.763626|
|         288|  8.6247e+00|  5.5676e-09|  7.6103e-01|  5.0000e-01|  5.0000e-01|  5.0000e-01|   -5.344564|   -5.495003|   -6.035254|   -5.553494|   -5.598514|   -8.088947|    1.763683|
|         289|  8.6234e+00|  5.5674e-09|  7.6103e-01|  5.0000e-01|  5.0000e-01|  5.0000e-01|   -5.345575|   -5.496139|   -6.035434|   -5.554364|   -5.599349|   -8.088812|    1.763740|
|         290|  8.6226e+00|  5.5673e-09|  7.6103e-01|  5.0000e-01|  5.0000e-01|  5.0000e-01|   -5.346583|   -5.497272|   -6.035609|   -5.555230|   -5.600182|   -8.088680|    1.763796|
|         291|  8.6218e+00|  5.5671e-09|  7.6103e-01|  5.0000e-01|  5.0000e-01|  5.0000e-01|   -5.347587|   -5.498405|   -6.035780|   -5.556094|   -5.601013|   -8.088551|    1.763853|
|         292|  8.6208e+00|  5.5669e-09|  7.6103e-01|  5.0000e-01|  5.0000e-01|  5.0000e-01|   -5.348587|   -5.499535|   -6.035947|   -5.556955|   -5.601842|   -8.088424|    1.763909|
|         293|  8.6195e+00|  5.5668e-09|  7.6103e-01|  5.0000e-01|  5.0000e-01|  5.0000e-01|   -5.349584|   -5.500663|   -6.036109|   -5.557813|   -5.602669|   -8.088300|    1.763965|
|         294|  8.6185e+00|  5.5666e-09|  7.6103e-01|  5.0000e-01|  5.0000e-01|  5.0000e-01|   -5.350577|   -5.501790|   -6.036267|   -5.558667|   -5.603493|   -8.088179|    1.764020|
|         295|  8.6182e+00|  5.5665e-09|  7.6103e-01|  5.0000e-01|  5.0000e-01|  5.0000e-01|   -5.351566|   -5.502914|   -6.036420|   -5.559517|   -5.604315|   -8.088061|    1.764076|
|         296|  8.6181e+00|  5.5663e-09|  7.6103e-01|  5.0000e-01|  5.0000e-01|  5.0000e-01|   -5.352550|   -5.504035|   -6.036569|   -5.560364|   -5.605134|   -8.087945|    1.764131|
|         297|  8.6173e+00|  5.5662e-09|  7.6103e-01|  5.0000e-01|  5.0000e-01|  5.0000e-01|   -5.353530|   -5.505154|   -6.036714|   -5.561206|   -5.605951|   -8.087832|    1.764186|
|         298|  8.6160e+00|  5.5660e-09|  7.6103e-01|  5.0000e-01|  5.0000e-01|  5.0000e-01|   -5.354506|   -5.506270|   -6.036858|   -5.562046|   -5.606766|   -8.087721|    1.764242|
|         299|  8.6147e+00|  5.5658e-09|  7.6103e-01|  5.0000e-01|  5.0000e-01|  5.0000e-01|   -5.355477|   -5.507383|   -6.036997|   -5.562881|   -5.607578|   -8.087613|    1.764296|
|         300|  8.6133e+00|  5.5657e-09|  7.6103e-01|  5.0000e-01|  5.0000e-01|  5.0000e-01|   -5.356443|   -5.508494|   -6.037132|   -5.563712|   -5.608387|   -8.087508|    1.764351|
+-----------------------------------------------------------------------+
|        File Writing Summary       |              Filename             |
+-----------------------------------------------------------------------+
|SU2 binary restart                 |restart_flow.dat                   |
|Paraview                           |flow.vtu                           |
|Paraview surface                   |surface_flow.vtu                   |
+-----------------------------------------------------------------------+
+-------------------------------------------------------------------------------------------------------------------------------------------------------------------------------------+
|  Inner_Iter|   Time(sec)|      Min DT|      Max DT|     Min CFL|     Max CFL|     Avg CFL|    rms[Rho]|   rms[RhoU]|   rms[RhoV]|   rms[RhoW]|   rms[RhoE]|     rms[nu]|          CD|
+-------------------------------------------------------------------------------------------------------------------------------------------------------------------------------------+
|         301|  8.6936e+00|  5.5655e-09|  7.6103e-01|  5.0000e-01|  5.0000e-01|  5.0000e-01|   -5.357405|   -5.509600|   -6.037264|   -5.564540|   -5.609193|   -8.087406|    1.764406|
|         302|  8.6946e+00|  5.5654e-09|  7.6103e-01|  5.0000e-01|  5.0000e-01|  5.0000e-01|   -5.358362|   -5.510704|   -6.037391|   -5.565362|   -5.609997|   -8.087306|    1.764460|
|         303|  8.6936e+00|  5.5652e-09|  7.6103e-01|  5.0000e-01|  5.0000e-01|  5.0000e-01|   -5.359313|   -5.511803|   -6.037515|   -5.566180|   -5.610796|   -8.087209|    1.764514|
|         304|  8.6933e+00|  5.5650e-09|  7.6103e-01|  5.0000e-01|  5.0000e-01|  5.0000e-01|   -5.360258|   -5.512899|   -6.037633|   -5.566993|   -5.611592|   -8.087114|    1.764568|
|         305|  8.6936e+00|  5.5649e-09|  7.6103e-01|  5.0000e-01|  5.0000e-01|  5.0000e-01|   -5.361198|   -5.513991|   -6.037748|   -5.567801|   -5.612385|   -8.087022|    1.764622|
|         306|  8.6951e+00|  5.5647e-09|  7.6103e-01|  5.0000e-01|  5.0000e-01|  5.0000e-01|   -5.362131|   -5.515078|   -6.037858|   -5.568603|   -5.613174|   -8.086933|    1.764675|
|         307|  8.6950e+00|  5.5646e-09|  7.6103e-01|  5.0000e-01|  5.0000e-01|  5.0000e-01|   -5.363058|   -5.516161|   -6.037964|   -5.569400|   -5.613958|   -8.086847|    1.764729|
|         308|  8.6951e+00|  5.5644e-09|  7.6103e-01|  5.0000e-01|  5.0000e-01|  5.0000e-01|   -5.363979|   -5.517240|   -6.038067|   -5.570191|   -5.614739|   -8.086763|    1.764782|
|         309|  8.6944e+00|  5.5643e-09|  7.6103e-01|  5.0000e-01|  5.0000e-01|  5.0000e-01|   -5.364894|   -5.518314|   -6.038164|   -5.570977|   -5.615516|   -8.086681|    1.764835|
|         310|  8.6936e+00|  5.5641e-09|  7.6103e-01|  5.0000e-01|  5.0000e-01|  5.0000e-01|   -5.365801|   -5.519382|   -6.038258|   -5.571757|   -5.616288|   -8.086602|    1.764888|
|         311|  8.6944e+00|  5.5639e-09|  7.6103e-01|  5.0000e-01|  5.0000e-01|  5.0000e-01|   -5.366702|   -5.520446|   -6.038347|   -5.572532|   -5.617056|   -8.086526|    1.764940|
|         312|  8.6936e+00|  5.5638e-09|  7.6103e-01|  5.0000e-01|  5.0000e-01|  5.0000e-01|   -5.367596|   -5.521505|   -6.038431|   -5.573300|   -5.617820|   -8.086453|    1.764993|
|         313|  8.6932e+00|  5.5636e-09|  7.6103e-01|  5.0000e-01|  5.0000e-01|  5.0000e-01|   -5.368483|   -5.522558|   -6.038511|   -5.574063|   -5.618579|   -8.086382|    1.765045|
|         314|  8.6915e+00|  5.5635e-09|  7.6103e-01|  5.0000e-01|  5.0000e-01|  5.0000e-01|   -5.369362|   -5.523605|   -6.038586|   -5.574819|   -5.619333|   -8.086313|    1.765097|
|         315|  8.6904e+00|  5.5633e-09|  7.6103e-01|  5.0000e-01|  5.0000e-01|  5.0000e-01|   -5.370234|   -5.524646|   -6.038657|   -5.575570|   -5.620083|   -8.086247|    1.765149|
|         316|  8.6891e+00|  5.5631e-09|  7.6103e-01|  5.0000e-01|  5.0000e-01|  5.0000e-01|   -5.371099|   -5.525682|   -6.038724|   -5.576314|   -5.620829|   -8.086184|    1.765200|
|         317|  8.6879e+00|  5.5630e-09|  7.6103e-01|  5.0000e-01|  5.0000e-01|  5.0000e-01|   -5.371956|   -5.526712|   -6.038788|   -5.577053|   -5.621570|   -8.086122|    1.765252|
|         318|  8.6867e+00|  5.5628e-09|  7.6103e-01|  5.0000e-01|  5.0000e-01|  5.0000e-01|   -5.372806|   -5.527736|   -6.038847|   -5.577786|   -5.622307|   -8.086064|    1.765303|
|         319|  8.6852e+00|  5.5627e-09|  7.6103e-01|  5.0000e-01|  5.0000e-01|  5.0000e-01|   -5.373648|   -5.528754|   -6.038903|   -5.578512|   -5.623038|   -8.086008|    1.765354|
|         320|  8.6833e+00|  5.5625e-09|  7.6103e-01|  5.0000e-01|  5.0000e-01|  5.0000e-01|   -5.374482|   -5.529765|   -6.038954|   -5.579232|   -5.623765|   -8.085954|    1.765405|
|         321|  8.6817e+00|  5.5623e-09|  7.6103e-01|  5.0000e-01|  5.0000e-01|  5.0000e-01|   -5.375308|   -5.530769|   -6.039000|   -5.579944|   -5.624486|   -8.085902|    1.765455|
|         322|  8.6798e+00|  5.5622e-09|  7.6103e-01|  5.0000e-01|  5.0000e-01|  5.0000e-01|   -5.376125|   -5.531767|   -6.039043|   -5.580650|   -5.625202|   -8.085853|    1.765506|
|         323|  8.6789e+00|  5.5620e-09|  7.6103e-01|  5.0000e-01|  5.0000e-01|  5.0000e-01|   -5.376934|   -5.532757|   -6.039082|   -5.581350|   -5.625913|   -8.085807|    1.765556|
|         324|  8.6774e+00|  5.5619e-09|  7.6103e-01|  5.0000e-01|  5.0000e-01|  5.0000e-01|   -5.377734|   -5.533741|   -6.039117|   -5.582042|   -5.626618|   -8.085762|    1.765606|
|         325|  8.6754e+00|  5.5617e-09|  7.6103e-01|  5.0000e-01|  5.0000e-01|  5.0000e-01|   -5.378526|   -5.534717|   -6.039148|   -5.582728|   -5.627319|   -8.085721|    1.765656|
|         326|  8.6741e+00|  5.5615e-09|  7.6103e-01|  5.0000e-01|  5.0000e-01|  5.0000e-01|   -5.379309|   -5.535686|   -6.039176|   -5.583406|   -5.628013|   -8.085681|    1.765705|
|         327|  8.6729e+00|  5.5614e-09|  7.6103e-01|  5.0000e-01|  5.0000e-01|  5.0000e-01|   -5.380083|   -5.536648|   -6.039200|   -5.584078|   -5.628703|   -8.085644|    1.765754|
|         328|  8.6713e+00|  5.5612e-09|  7.6103e-01|  5.0000e-01|  5.0000e-01|  5.0000e-01|   -5.380848|   -5.537603|   -6.039221|   -5.584742|   -5.629387|   -8.085609|    1.765804|
|         329|  8.6697e+00|  5.5611e-09|  7.6103e-01|  5.0000e-01|  5.0000e-01|  5.0000e-01|   -5.381604|   -5.538549|   -6.039238|   -5.585399|   -5.630065|   -8.085576|    1.765853|
|         330|  8.6682e+00|  5.5609e-09|  7.6103e-01|  5.0000e-01|  5.0000e-01|  5.0000e-01|   -5.382350|   -5.539487|   -6.039252|   -5.586048|   -5.630738|   -8.085545|    1.765901|
|         331|  8.6675e+00|  5.5607e-09|  7.6103e-01|  5.0000e-01|  5.0000e-01|  5.0000e-01|   -5.383087|   -5.540417|   -6.039261|   -5.586689|   -5.631404|   -8.085517|    1.765950|
|         332|  8.6659e+00|  5.5606e-09|  7.6103e-01|  5.0000e-01|  5.0000e-01|  5.0000e-01|   -5.383813|   -5.541338|   -6.039266|   -5.587322|   -5.632064|   -8.085491|    1.765998|
|         333|  8.6645e+00|  5.5604e-09|  7.6103e-01|  5.0000e-01|  5.0000e-01|  5.0000e-01|   -5.384530|   -5.542251|   -6.039267|   -5.587947|   -5.632718|   -8.085467|    1.766046|
|         334|  8.6629e+00|  5.5603e-09|  7.6103e-01|  5.0000e-01|  5.0000e-01|  5.0000e-01|   -5.385237|   -5.543154|   -6.039265|   -5.588564|   -5.633365|   -8.085445|    1.766094|
|         335|  8.6612e+00|  5.5601e-09|  7.6103e-01|  5.0000e-01|  5.0000e-01|  5.0000e-01|   -5.385933|   -5.544048|   -6.039259|   -5.589173|   -5.634006|   -8.085425|    1.766142|
|         336|  8.6601e+00|  5.5599e-09|  7.6103e-01|  5.0000e-01|  5.0000e-01|  5.0000e-01|   -5.386619|   -5.544933|   -6.039249|   -5.589774|   -5.634640|   -8.085407|    1.766189|
|         337|  8.6588e+00|  5.5598e-09|  7.6103e-01|  5.0000e-01|  5.0000e-01|  5.0000e-01|   -5.387294|   -5.545809|   -6.039236|   -5.590365|   -5.635267|   -8.085392|    1.766237|
|         338|  8.6575e+00|  5.5596e-09|  7.6103e-01|  5.0000e-01|  5.0000e-01|  5.0000e-01|   -5.387958|   -5.546674|   -6.039219|   -5.590949|   -5.635887|   -8.085379|    1.766284|
|         339|  8.6564e+00|  5.5594e-09|  7.6103e-01|  5.0000e-01|  5.0000e-01|  5.0000e-01|   -5.388612|   -5.547530|   -6.039199|   -5.591524|   -5.636501|   -8.085367|    1.766330|
|         340|  8.6556e+00|  5.5593e-09|  7.6103e-01|  5.0000e-01|  5.0000e-01|  5.0000e-01|   -5.389256|   -5.548377|   -6.039177|   -5.592092|   -5.637109|   -8.085358|    1.766377|
|         341|  8.6555e+00|  5.5591e-09|  7.6103e-01|  5.0000e-01|  5.0000e-01|  5.0000e-01|   -5.389890|   -5.549214|   -6.039151|   -5.592651|   -5.637710|   -8.085351|    1.766423|
|         342|  8.6550e+00|  5.5590e-09|  7.6103e-01|  5.0000e-01|  5.0000e-01|  5.0000e-01|   -5.390512|   -5.550040|   -6.039121|   -5.593201|   -5.638304|   -8.085345|    1.766470|
|         343|  8.6538e+00|  5.5588e-09|  7.6103e-01|  5.0000e-01|  5.0000e-01|  5.0000e-01|   -5.391124|   -5.550856|   -6.039089|   -5.593743|   -5.638892|   -8.085342|    1.766516|
|         344|  8.6526e+00|  5.5586e-09|  7.6103e-01|  5.0000e-01|  5.0000e-01|  5.0000e-01|   -5.391724|   -5.551661|   -6.039053|   -5.594275|   -5.639472|   -8.085340|    1.766561|
|         345|  8.6518e+00|  5.5585e-09|  7.6103e-01|  5.0000e-01|  5.0000e-01|  5.0000e-01|   -5.392313|   -5.552455|   -6.039012|   -5.594798|   -5.640044|   -8.085341|    1.766607|
|         346|  8.6511e+00|  5.5583e-09|  7.6103e-01|  5.0000e-01|  5.0000e-01|  5.0000e-01|   -5.392890|   -5.553238|   -6.038968|   -5.595312|   -5.640609|   -8.085343|    1.766652|
|         347|  8.6501e+00|  5.5582e-09|  7.6103e-01|  5.0000e-01|  5.0000e-01|  5.0000e-01|   -5.393455|   -5.554010|   -6.038921|   -5.595816|   -5.641167|   -8.085347|    1.766697|
|         348|  8.6487e+00|  5.5580e-09|  7.6103e-01|  5.0000e-01|  5.0000e-01|  5.0000e-01|   -5.394009|   -5.554771|   -6.038870|   -5.596311|   -5.641716|   -8.085354|    1.766742|
|         349|  8.6471e+00|  5.5578e-09|  7.6103e-01|  5.0000e-01|  5.0000e-01|  5.0000e-01|   -5.394550|   -5.555520|   -6.038816|   -5.596797|   -5.642258|   -8.085362|    1.766787|
[...]
|        8028|  7.9059e+00|  4.8678e-09|  7.6103e-01|  5.0000e-01|  5.0000e-01|  5.0000e-01|   -5.890983|   -6.019699|   -6.488619|   -6.200492|   -6.173239|   -8.691654|    1.763104|
|        8029|  7.9059e+00|  4.8677e-09|  7.6103e-01|  5.0000e-01|  5.0000e-01|  5.0000e-01|   -5.890628|   -6.019330|   -6.488580|   -6.200158|   -6.172977|   -8.691387|    1.763084|
|        8030|  7.9059e+00|  4.8676e-09|  7.6103e-01|  5.0000e-01|  5.0000e-01|  5.0000e-01|   -5.890272|   -6.018960|   -6.488542|   -6.199823|   -6.172713|   -8.691126|    1.763063|
|        8031|  7.9058e+00|  4.8675e-09|  7.6103e-01|  5.0000e-01|  5.0000e-01|  5.0000e-01|   -5.889917|   -6.018589|   -6.488505|   -6.199488|   -6.172448|   -8.690872|    1.763042|
|        8032|  7.9058e+00|  4.8674e-09|  7.6103e-01|  5.0000e-01|  5.0000e-01|  5.0000e-01|   -5.889562|   -6.018218|   -6.488467|   -6.199153|   -6.172182|   -8.690625|    1.763022|
|        8033|  7.9058e+00|  4.8673e-09|  7.6103e-01|  5.0000e-01|  5.0000e-01|  5.0000e-01|   -5.889207|   -6.017846|   -6.488430|   -6.198818|   -6.171916|   -8.690384|    1.763001|
|        8034|  7.9058e+00|  4.8672e-09|  7.6103e-01|  5.0000e-01|  5.0000e-01|  5.0000e-01|   -5.888854|   -6.017473|   -6.488393|   -6.198483|   -6.171649|   -8.690150|    1.762980|
|        8035|  7.9058e+00|  4.8671e-09|  7.6103e-01|  5.0000e-01|  5.0000e-01|  5.0000e-01|   -5.888500|   -6.017100|   -6.488357|   -6.198149|   -6.171382|   -8.689923|    1.762959|
|        8036|  7.9058e+00|  4.8670e-09|  7.6103e-01|  5.0000e-01|  5.0000e-01|  5.0000e-01|   -5.888146|   -6.016726|   -6.488321|   -6.197814|   -6.171113|   -8.689703|    1.762938|
|        8037|  7.9057e+00|  4.8669e-09|  7.6103e-01|  5.0000e-01|  5.0000e-01|  5.0000e-01|   -5.887793|   -6.016352|   -6.488285|   -6.197480|   -6.170844|   -8.689490|    1.762917|
|        8038|  7.9057e+00|  4.8668e-09|  7.6103e-01|  5.0000e-01|  5.0000e-01|  5.0000e-01|   -5.887440|   -6.015977|   -6.488250|   -6.197145|   -6.170574|   -8.689284|    1.762896|
|        8039|  7.9057e+00|  4.8667e-09|  7.6103e-01|  5.0000e-01|  5.0000e-01|  5.0000e-01|   -5.887088|   -6.015601|   -6.488215|   -6.196811|   -6.170303|   -8.689085|    1.762875|
|        8040|  7.9057e+00|  4.8666e-09|  7.6103e-01|  5.0000e-01|  5.0000e-01|  5.0000e-01|   -5.886736|   -6.015226|   -6.488180|   -6.196477|   -6.170031|   -8.688894|    1.762853|
|        8041|  7.9056e+00|  4.8665e-09|  7.6103e-01|  5.0000e-01|  5.0000e-01|  5.0000e-01|   -5.886384|   -6.014850|   -6.488147|   -6.196143|   -6.169760|   -8.688709|    1.762832|
|        8042|  7.9056e+00|  4.8664e-09|  7.6103e-01|  5.0000e-01|  5.0000e-01|  5.0000e-01|   -5.886033|   -6.014473|   -6.488114|   -6.195810|   -6.169487|   -8.688531|    1.762810|
|        8043|  7.9055e+00|  4.8663e-09|  7.6103e-01|  5.0000e-01|  5.0000e-01|  5.0000e-01|   -5.885683|   -6.014097|   -6.488081|   -6.195477|   -6.169214|   -8.688361|    1.762789|
|        8044|  7.9055e+00|  4.8662e-09|  7.6103e-01|  5.0000e-01|  5.0000e-01|  5.0000e-01|   -5.885334|   -6.013720|   -6.488049|   -6.195144|   -6.168941|   -8.688198|    1.762767|
|        8045|  7.9055e+00|  4.8661e-09|  7.6103e-01|  5.0000e-01|  5.0000e-01|  5.0000e-01|   -5.884985|   -6.013343|   -6.488017|   -6.194812|   -6.168667|   -8.688042|    1.762745|
|        8046|  7.9055e+00|  4.8659e-09|  7.6103e-01|  5.0000e-01|  5.0000e-01|  5.0000e-01|   -5.884637|   -6.012966|   -6.487985|   -6.194481|   -6.168393|   -8.687894|    1.762723|
|        8047|  7.9055e+00|  4.8658e-09|  7.6103e-01|  5.0000e-01|  5.0000e-01|  5.0000e-01|   -5.884289|   -6.012590|   -6.487954|   -6.194149|   -6.168119|   -8.687753|    1.762701|
|        8048|  7.9054e+00|  4.8657e-09|  7.6103e-01|  5.0000e-01|  5.0000e-01|  5.0000e-01|   -5.883943|   -6.012213|   -6.487923|   -6.193819|   -6.167844|   -8.687619|    1.762679|
|        8049|  7.9054e+00|  4.8656e-09|  7.6103e-01|  5.0000e-01|  5.0000e-01|  5.0000e-01|   -5.883597|   -6.011836|   -6.487893|   -6.193489|   -6.167569|   -8.687493|    1.762657|
|        8050|  7.9054e+00|  4.8655e-09|  7.6103e-01|  5.0000e-01|  5.0000e-01|  5.0000e-01|   -5.883252|   -6.011459|   -6.487863|   -6.193160|   -6.167294|   -8.687374|    1.762635|
|        8051|  7.9054e+00|  4.8654e-09|  7.6103e-01|  5.0000e-01|  5.0000e-01|  5.0000e-01|   -5.882908|   -6.011083|   -6.487834|   -6.192831|   -6.167019|   -8.687262|    1.762613|
|        8052|  7.9053e+00|  4.8653e-09|  7.6103e-01|  5.0000e-01|  5.0000e-01|  5.0000e-01|   -5.882565|   -6.010707|   -6.487805|   -6.192504|   -6.166743|   -8.687159|    1.762591|
|        8053|  7.9053e+00|  4.8652e-09|  7.6103e-01|  5.0000e-01|  5.0000e-01|  5.0000e-01|   -5.882224|   -6.010331|   -6.487777|   -6.192177|   -6.166468|   -8.687062|    1.762568|
|        8054|  7.9053e+00|  4.8651e-09|  7.6103e-01|  5.0000e-01|  5.0000e-01|  5.0000e-01|   -5.881883|   -6.009956|   -6.487750|   -6.191851|   -6.166193|   -8.686974|    1.762546|
|        8055|  7.9052e+00|  4.8650e-09|  7.6103e-01|  5.0000e-01|  5.0000e-01|  5.0000e-01|   -5.881544|   -6.009581|   -6.487723|   -6.191526|   -6.165917|   -8.686892|    1.762523|
|        8056|  7.9052e+00|  4.8649e-09|  7.6103e-01|  5.0000e-01|  5.0000e-01|  5.0000e-01|   -5.881205|   -6.009207|   -6.487696|   -6.191201|   -6.165642|   -8.686819|    1.762501|
|        8057|  7.9052e+00|  4.8648e-09|  7.6103e-01|  5.0000e-01|  5.0000e-01|  5.0000e-01|   -5.880868|   -6.008833|   -6.487670|   -6.190878|   -6.165367|   -8.686753|    1.762478|
|        8058|  7.9051e+00|  4.8647e-09|  7.6103e-01|  5.0000e-01|  5.0000e-01|  5.0000e-01|   -5.880533|   -6.008460|   -6.487645|   -6.190555|   -6.165092|   -8.686695|    1.762455|
|        8059|  7.9051e+00|  4.8646e-09|  7.6103e-01|  5.0000e-01|  5.0000e-01|  5.0000e-01|   -5.880199|   -6.008087|   -6.487620|   -6.190234|   -6.164818|   -8.686644|    1.762433|
|        8060|  7.9051e+00|  4.8645e-09|  7.6103e-01|  5.0000e-01|  5.0000e-01|  5.0000e-01|   -5.879866|   -6.007715|   -6.487597|   -6.189914|   -6.164544|   -8.686602|    1.762410|
|        8061|  7.9051e+00|  4.8644e-09|  7.6103e-01|  5.0000e-01|  5.0000e-01|  5.0000e-01|   -5.879534|   -6.007344|   -6.487574|   -6.189594|   -6.164269|   -8.686567|    1.762387|
|        8062|  7.9050e+00|  4.8643e-09|  7.6103e-01|  5.0000e-01|  5.0000e-01|  5.0000e-01|   -5.879204|   -6.006974|   -6.487551|   -6.189276|   -6.163996|   -8.686540|    1.762364|
|        8063|  7.9050e+00|  4.8642e-09|  7.6103e-01|  5.0000e-01|  5.0000e-01|  5.0000e-01|   -5.878877|   -6.006605|   -6.487529|   -6.188959|   -6.163723|   -8.686521|    1.762341|
|        8064|  7.9050e+00|  4.8641e-09|  7.6103e-01|  5.0000e-01|  5.0000e-01|  5.0000e-01|   -5.878550|   -6.006236|   -6.487508|   -6.188644|   -6.163451|   -8.686509|    1.762317|
|        8065|  7.9050e+00|  4.8640e-09|  7.6103e-01|  5.0000e-01|  5.0000e-01|  5.0000e-01|   -5.878225|   -6.005869|   -6.487487|   -6.188329|   -6.163179|   -8.686506|    1.762294|
|        8066|  7.9050e+00|  4.8639e-09|  7.6103e-01|  5.0000e-01|  5.0000e-01|  5.0000e-01|   -5.877902|   -6.005502|   -6.487467|   -6.188016|   -6.162908|   -8.686510|    1.762271|
|        8067|  7.9049e+00|  4.8638e-09|  7.6103e-01|  5.0000e-01|  5.0000e-01|  5.0000e-01|   -5.877581|   -6.005137|   -6.487446|   -6.187705|   -6.162637|   -8.686523|    1.762247|
|        8068|  7.9049e+00|  4.8637e-09|  7.6103e-01|  5.0000e-01|  5.0000e-01|  5.0000e-01|   -5.877261|   -6.004773|   -6.487426|   -6.187395|   -6.162367|   -8.686543|    1.762224|
|        8069|  7.9049e+00|  4.8636e-09|  7.6103e-01|  5.0000e-01|  5.0000e-01|  5.0000e-01|   -5.876943|   -6.004409|   -6.487407|   -6.187086|   -6.162097|   -8.686572|    1.762200|
|        8070|  7.9049e+00|  4.8635e-09|  7.6103e-01|  5.0000e-01|  5.0000e-01|  5.0000e-01|   -5.876626|   -6.004047|   -6.487386|   -6.186779|   -6.161827|   -8.686608|    1.762177|
|        8071|  7.9049e+00|  4.8634e-09|  7.6103e-01|  5.0000e-01|  5.0000e-01|  5.0000e-01|   -5.876310|   -6.003686|   -6.487366|   -6.186472|   -6.161558|   -8.686653|    1.762153|
|        8072|  7.9049e+00|  4.8633e-09|  7.6103e-01|  5.0000e-01|  5.0000e-01|  5.0000e-01|   -5.875997|   -6.003326|   -6.487347|   -6.186168|   -6.161289|   -8.686705|    1.762129|
|        8073|  7.9049e+00|  4.8632e-09|  7.6103e-01|  5.0000e-01|  5.0000e-01|  5.0000e-01|   -5.875685|   -6.002968|   -6.487328|   -6.185864|   -6.161021|   -8.686766|    1.762106|
|        8074|  7.9049e+00|  4.8631e-09|  7.6103e-01|  5.0000e-01|  5.0000e-01|  5.0000e-01|   -5.875375|   -6.002611|   -6.487309|   -6.185563|   -6.160754|   -8.686835|    1.762082|
|        8075|  7.9048e+00|  4.8630e-09|  7.6103e-01|  5.0000e-01|  5.0000e-01|  5.0000e-01|   -5.875066|   -6.002255|   -6.487291|   -6.185262|   -6.160487|   -8.686912|    1.762058|
|        8076|  7.9048e+00|  4.8629e-09|  7.6103e-01|  5.0000e-01|  5.0000e-01|  5.0000e-01|   -5.874759|   -6.001901|   -6.487273|   -6.184963|   -6.160221|   -8.686997|    1.762034|
|        8077|  7.9048e+00|  4.8628e-09|  7.6103e-01|  5.0000e-01|  5.0000e-01|  5.0000e-01|   -5.874454|   -6.001548|   -6.487255|   -6.184666|   -6.159956|   -8.687091|    1.762010|
|        8078|  7.9047e+00|  4.8627e-09|  7.6103e-01|  5.0000e-01|  5.0000e-01|  5.0000e-01|   -5.874151|   -6.001196|   -6.487237|   -6.184369|   -6.159691|   -8.687192|    1.761986|
|        8079|  7.9047e+00|  4.8626e-09|  7.6103e-01|  5.0000e-01|  5.0000e-01|  5.0000e-01|   -5.873849|   -6.000845|   -6.487218|   -6.184074|   -6.159426|   -8.687302|    1.761962|
|        8080|  7.9046e+00|  4.8625e-09|  7.6103e-01|  5.0000e-01|  5.0000e-01|  5.0000e-01|   -5.873548|   -6.000495|   -6.487199|   -6.183781|   -6.159161|   -8.687420|    1.761937|
|        8081|  7.9046e+00|  4.8624e-09|  7.6103e-01|  5.0000e-01|  5.0000e-01|  5.0000e-01|   -5.873250|   -6.000147|   -6.487181|   -6.183489|   -6.158898|   -8.687546|    1.761913|
|        8082|  7.9046e+00|  4.8624e-09|  7.6103e-01|  5.0000e-01|  5.0000e-01|  5.0000e-01|   -5.872953|   -5.999801|   -6.487164|   -6.183199|   -6.158636|   -8.687681|    1.761889|
|        8083|  7.9046e+00|  4.8623e-09|  7.6103e-01|  5.0000e-01|  5.0000e-01|  5.0000e-01|   -5.872658|   -5.999456|   -6.487147|   -6.182911|   -6.158374|   -8.687824|    1.761864|
|        8084|  7.9046e+00|  4.8622e-09|  7.6103e-01|  5.0000e-01|  5.0000e-01|  5.0000e-01|   -5.872365|   -5.999112|   -6.487130|   -6.182624|   -6.158113|   -8.687975|    1.761840|
|        8085|  7.9045e+00|  4.8621e-09|  7.6103e-01|  5.0000e-01|  5.0000e-01|  5.0000e-01|   -5.872074|   -5.998770|   -6.487113|   -6.182339|   -6.157853|   -8.688135|    1.761815|
|        8086|  7.9045e+00|  4.8620e-09|  7.6103e-01|  5.0000e-01|  5.0000e-01|  5.0000e-01|   -5.871785|   -5.998430|   -6.487097|   -6.182056|   -6.157593|   -8.688303|    1.761790|
|        8087|  7.9045e+00|  4.8619e-09|  7.6103e-01|  5.0000e-01|  5.0000e-01|  5.0000e-01|   -5.871498|   -5.998092|   -6.487082|   -6.181774|   -6.157335|   -8.688479|    1.761766|
|        8088|  7.9044e+00|  4.8618e-09|  7.6103e-01|  5.0000e-01|  5.0000e-01|  5.0000e-01|   -5.871213|   -5.997755|   -6.487067|   -6.181495|   -6.157078|   -8.688664|    1.761741|
|        8089|  7.9044e+00|  4.8617e-09|  7.6103e-01|  5.0000e-01|  5.0000e-01|  5.0000e-01|   -5.870931|   -5.997420|   -6.487052|   -6.181217|   -6.156822|   -8.688857|    1.761716|
|        8090|  7.9043e+00|  4.8616e-09|  7.6103e-01|  5.0000e-01|  5.0000e-01|  5.0000e-01|   -5.870650|   -5.997086|   -6.487038|   -6.180941|   -6.156567|   -8.689059|    1.761691|
|        8091|  7.9043e+00|  4.8615e-09|  7.6103e-01|  5.0000e-01|  5.0000e-01|  5.0000e-01|   -5.870372|   -5.996755|   -6.487023|   -6.180667|   -6.156313|   -8.689269|    1.761667|
|        8092|  7.9043e+00|  4.8614e-09|  7.6103e-01|  5.0000e-01|  5.0000e-01|  5.0000e-01|   -5.870095|   -5.996425|   -6.487009|   -6.180395|   -6.156060|   -8.689487|    1.761642|
|        8093|  7.9043e+00|  4.8613e-09|  7.6103e-01|  5.0000e-01|  5.0000e-01|  5.0000e-01|   -5.869821|   -5.996096|   -6.486996|   -6.180125|   -6.155808|   -8.689714|    1.761617|
|        8094|  7.9043e+00|  4.8612e-09|  7.6103e-01|  5.0000e-01|  5.0000e-01|  5.0000e-01|   -5.869549|   -5.995770|   -6.486983|   -6.179856|   -6.155557|   -8.689949|    1.761592|
|        8095|  7.9043e+00|  4.8611e-09|  7.6103e-01|  5.0000e-01|  5.0000e-01|  5.0000e-01|   -5.869279|   -5.995446|   -6.486970|   -6.179590|   -6.155308|   -8.690193|    1.761566|
|        8096|  7.9043e+00|  4.8610e-09|  7.6103e-01|  5.0000e-01|  5.0000e-01|  5.0000e-01|   -5.869011|   -5.995123|   -6.486958|   -6.179326|   -6.155059|   -8.690446|    1.761541|
|        8097|  7.9043e+00|  4.8609e-09|  7.6103e-01|  5.0000e-01|  5.0000e-01|  5.0000e-01|   -5.868746|   -5.994803|   -6.486946|   -6.179064|   -6.154812|   -8.690707|    1.761516|
|        8098|  7.9043e+00|  4.8608e-09|  7.6103e-01|  5.0000e-01|  5.0000e-01|  5.0000e-01|   -5.868482|   -5.994484|   -6.486934|   -6.178804|   -6.154565|   -8.690976|    1.761491|
|        8099|  7.9043e+00|  4.8607e-09|  7.6103e-01|  5.0000e-01|  5.0000e-01|  5.0000e-01|   -5.868221|   -5.994167|   -6.486924|   -6.178546|   -6.154321|   -8.691254|    1.761465|
|        8100|  7.9042e+00|  4.8606e-09|  7.6103e-01|  5.0000e-01|  5.0000e-01|  5.0000e-01|   -5.867963|   -5.993853|   -6.486914|   -6.178290|   -6.154077|   -8.691541|    1.761440|
+-----------------------------------------------------------------------+
|        File Writing Summary       |              Filename             |
+-----------------------------------------------------------------------+
|SU2 binary restart                 |restart_flow.dat                   |
|Paraview                           |flow.vtu                           |
|Paraview surface                   |surface_flow.vtu                   |
+-----------------------------------------------------------------------+
+-------------------------------------------------------------------------------------------------------------------------------------------------------------------------------------+
|  Inner_Iter|   Time(sec)|      Min DT|      Max DT|     Min CFL|     Max CFL|     Avg CFL|    rms[Rho]|   rms[RhoU]|   rms[RhoV]|   rms[RhoW]|   rms[RhoE]|     rms[nu]|          CD|
+-------------------------------------------------------------------------------------------------------------------------------------------------------------------------------------+
|        8101|  7.9068e+00|  4.8605e-09|  7.6103e-01|  5.0000e-01|  5.0000e-01|  5.0000e-01|   -5.867707|   -5.993541|   -6.486904|   -6.178037|   -6.153835|   -8.691836|    1.761415|
|        8102|  7.9068e+00|  4.8605e-09|  7.6103e-01|  5.0000e-01|  5.0000e-01|  5.0000e-01|   -5.867454|   -5.993231|   -6.486894|   -6.177785|   -6.153594|   -8.692139|    1.761389|
|        8103|  7.9067e+00|  4.8604e-09|  7.6103e-01|  5.0000e-01|  5.0000e-01|  5.0000e-01|   -5.867202|   -5.992922|   -6.486884|   -6.177536|   -6.153355|   -8.692452|    1.761364|
|        8104|  7.9066e+00|  4.8603e-09|  7.6103e-01|  5.0000e-01|  5.0000e-01|  5.0000e-01|   -5.866954|   -5.992616|   -6.486875|   -6.177289|   -6.153117|   -8.692773|    1.761338|
|        8105|  7.9066e+00|  4.8602e-09|  7.6103e-01|  5.0000e-01|  5.0000e-01|  5.0000e-01|   -5.866707|   -5.992313|   -6.486866|   -6.177045|   -6.152881|   -8.693102|    1.761312|
|        8106|  7.9065e+00|  4.8601e-09|  7.6103e-01|  5.0000e-01|  5.0000e-01|  5.0000e-01|   -5.866464|   -5.992011|   -6.486857|   -6.176803|   -6.152645|   -8.693440|    1.761287|
|        8107|  7.9064e+00|  4.8600e-09|  7.6103e-01|  5.0000e-01|  5.0000e-01|  5.0000e-01|   -5.866223|   -5.991712|   -6.486849|   -6.176563|   -6.152412|   -8.693787|    1.761261|
|        8108|  7.9064e+00|  4.8599e-09|  7.6103e-01|  5.0000e-01|  5.0000e-01|  5.0000e-01|   -5.865985|   -5.991416|   -6.486842|   -6.176326|   -6.152181|   -8.694142|    1.761235|
|        8109|  7.9063e+00|  4.8598e-09|  7.6103e-01|  5.0000e-01|  5.0000e-01|  5.0000e-01|   -5.865749|   -5.991122|   -6.486835|   -6.176092|   -6.151951|   -8.694506|    1.761209|
|        8110|  7.9063e+00|  4.8597e-09|  7.6103e-01|  5.0000e-01|  5.0000e-01|  5.0000e-01|   -5.865517|   -5.990830|   -6.486828|   -6.175860|   -6.151723|   -8.694878|    1.761183|
|        8111|  7.9062e+00|  4.8596e-09|  7.6103e-01|  5.0000e-01|  5.0000e-01|  5.0000e-01|   -5.865286|   -5.990541|   -6.486822|   -6.175630|   -6.151496|   -8.695260|    1.761158|
|        8112|  7.9062e+00|  4.8595e-09|  7.6103e-01|  5.0000e-01|  5.0000e-01|  5.0000e-01|   -5.865059|   -5.990254|   -6.486817|   -6.175403|   -6.151272|   -8.695649|    1.761132|
|        8113|  7.9061e+00|  4.8594e-09|  7.6103e-01|  5.0000e-01|  5.0000e-01|  5.0000e-01|   -5.864834|   -5.989970|   -6.486812|   -6.175179|   -6.151048|   -8.696048|    1.761106|
|        8114|  7.9060e+00|  4.8593e-09|  7.6103e-01|  5.0000e-01|  5.0000e-01|  5.0000e-01|   -5.864612|   -5.989688|   -6.486807|   -6.174957|   -6.150827|   -8.696455|    1.761080|
|        8115|  7.9060e+00|  4.8593e-09|  7.6103e-01|  5.0000e-01|  5.0000e-01|  5.0000e-01|   -5.864393|   -5.989408|   -6.486802|   -6.174737|   -6.150607|   -8.696871|    1.761053|
|        8116|  7.9059e+00|  4.8592e-09|  7.6103e-01|  5.0000e-01|  5.0000e-01|  5.0000e-01|   -5.864176|   -5.989131|   -6.486798|   -6.174520|   -6.150388|   -8.697296|    1.761027|
|        8117|  7.9059e+00|  4.8591e-09|  7.6103e-01|  5.0000e-01|  5.0000e-01|  5.0000e-01|   -5.863962|   -5.988856|   -6.486795|   -6.174305|   -6.150172|   -8.697729|    1.761001|
|        8118|  7.9058e+00|  4.8590e-09|  7.6103e-01|  5.0000e-01|  5.0000e-01|  5.0000e-01|   -5.863750|   -5.988584|   -6.486792|   -6.174093|   -6.149957|   -8.698171|    1.760975|

scontrol show job 1082966
JobId=1082966 JobName=m6_aoa32
   UserId=anthonyy(3152141) GroupId=anthonyy(3152141) MCS_label=N/A
   Priority=788377 Nice=0 Account=rrg-jphickey QOS=normal
   JobState=COMPLETING Reason=TimeLimit Dependency=(null)
   Requeue=0 Restarts=0 BatchFlag=1 Reboot=0 ExitCode=0:15
   RunTime=18:00:10 TimeLimit=18:00:00 TimeMin=N/A
   SubmitTime=2026-02-28T18:41:11 EligibleTime=2026-02-28T18:41:11
   AccrueTime=2026-02-28T18:41:11
   StartTime=2026-02-28T19:02:34 EndTime=2026-03-01T13:02:44 Deadline=N/A
   SuspendTime=None SecsPreSuspend=0 LastSchedEval=2026-02-28T19:02:34 Scheduler=Main
   Partition=compute AllocNode:Sid=tri-login03:2722539
   ReqNodeList=(null) ExcNodeList=(null)
   NodeList=tri[0043,0082]
   BatchHost=tri0043
   NumNodes=2 NumCPUs=384 NumTasks=128 CPUs/Task=1 ReqB:S:C:T=0:0:*:*
   ReqTRES=cpu=128,mem=1534000M,node=2,billing=128
   AllocTRES=cpu=384,mem=1534000M,node=2,billing=384
   Socks/Node=* NtasksPerN:B:S:C=64:0:*:* CoreSpec=*
   MinCPUsNode=64 MinMemoryNode=0 MinTmpDiskNode=0
   Features=(null) DelayBoot=00:00:00
   OverSubscribe=NO Contiguous=0 Licenses=(null) Network=(null)
   Command=/scratch/anthonyy/reentry/orion/cases/m6_aoa32/run.sh
   WorkDir=/scratch/anthonyy/reentry/orion/cases/m6_aoa32
   Comment=/opt/slurm/bin/sbatch --export=NONE --get-user-env=L run.sh 
   StdErr=/scratch/anthonyy/reentry/orion/cases/m6_aoa32/orion_1082966.err
   StdIn=/dev/null
   StdOut=/scratch/anthonyy/reentry/orion/cases/m6_aoa32/orion_1082966.out
   TresPerTask=cpu=1
   

sacct -j 1082966
JobID           JobName    Account    Elapsed  MaxVMSize     MaxRSS  SystemCPU    UserCPU ExitCode 
------------ ---------- ---------- ---------- ---------- ---------- ---------- ---------- -------- 
1082966        m6_aoa32 rrg-jphic+   18:00:10                         14:18:38 94-13:49:+      0:0 
1082966.bat+      batch rrg-jphic+   18:00:11          0      8788K  00:00.098  00:00.383     0:15 
1082966.ext+     extern rrg-jphic+   18:00:10                         00:00:00   00:00:00      0:0 
1082966.0       SU2_CFD rrg-jphic+   18:00:10          0  10616012K   14:18:38 94-13:49:+     0:15 

