Nodes: tri[0088-0089]
Tasks: 128
NPN:   64

-------------------------------------------------------------------------
|    ___ _   _ ___                                                      |
|   / __| | | |_  )   Release 7.5.1 "Blackbird"                         |
|   \__ \ |_| |/ /                                                      |
|   |___/\___//___|   Suite (Computational Fluid Dynamics Code)         |
|                                                                       |
-------------------------------------------------------------------------
| SU2 Project Website: https://su2code.github.io                        |
|                                                                       |
| The SU2 Project is maintained by the SU2 Foundation                   |
| (http://su2foundation.org)                                            |
-------------------------------------------------------------------------
| Copyright 2012-2023, SU2 Contributors                                 |
|                                                                       |
| SU2 is free software; you can redistribute it and/or                  |
| modify it under the terms of the GNU Lesser General Public            |
| License as published by the Free Software Foundation; either          |
| version 2.1 of the License, or (at your option) any later version.    |
|                                                                       |
| SU2 is distributed in the hope that it will be useful,                |
| but WITHOUT ANY WARRANTY; without even the implied warranty of        |
| MERCHANTABILITY or FITNESS FOR A PARTICULAR PURPOSE. See the GNU      |
| Lesser General Public License for more details.                       |
|                                                                       |
| You should have received a copy of the GNU Lesser General Public      |
| License along with SU2. If not, see <http://www.gnu.org/licenses/>.   |
-------------------------------------------------------------------------

Parsing config file for zone 0

----------------- Physical Case Definition ( Zone 0 ) -------------------
Compressible RANS equations.
Turbulence model: Spalart-Allmaras-noft2
Hybrid RANS/LES: No Hybrid RANS/LES
Mach number: 6.
Angle of attack (AoA): 32 deg, and angle of sideslip (AoS): 0 deg.
Reynolds number: 6.86229e+08. Reference length 5.
Reading and writing binary SU2 native restart files.
Read flow solution from: restart_flow.dat.
Non-Dimensional simulation (V=1.0, Rho=1.0, T=1.0 at the farfield).
The reference area will be computed using y(2D) or z(3D) projection.
The semi-span will be computed using the max y(3D) value.
The reference length is 0.64607 m.
Reference origin for moment evaluation is (0.25, 0, 0).
Surface(s) where the force coefficients are evaluated: ORION_SURFACE.

Input mesh file name: fine.su2

--------------- Space Numerical Integration ( Zone 0 ) ------------------
Jameson-Schmidt-Turkel scheme (2nd order in space) for the flow inviscid terms.
JST viscous coefficients (2nd & 4th): 0.5, 0.02.
The method includes a grid stretching correction (p = 0.3).
Scalar upwind solver for the turbulence model.
First order integration in space.
Average of gradients with correction (viscous flow terms).
Average of gradients with correction (viscous turbulence terms).
Gradient for upwind reconstruction: Green-Gauss.
Gradient for viscous and source terms: Green-Gauss.

--------------- Time Numerical Integration  ( Zone 0 ) ------------------
Local time stepping (steady state simulation).
Euler implicit method for the flow equations.
FGMRES is used for solving the linear system.
Using a ILU(0) preconditioning.
Convergence criteria of the linear solver: 1e-06.
Max number of linear iterations: 100.
CFL adaptation. Factor down: 0.5, factor up: 1.1,
                lower limit: 0.05, upper limit: 0.5,
                acceptable linear residual: 0.001.
Courant-Friedrichs-Lewy number:     0.03
Euler implicit time integration for the turbulence model.

------------------ Convergence Criteria  ( Zone 0 ) ---------------------
Maximum number of solver subiterations: 999999.
Begin convergence monitoring at iteration 5.
Residual minimum value: 1e-8.
Cauchy series min. value: 1e-10.
Number of Cauchy elements: 100.
Begin windowed time average at iteration 0.

-------------------- Output Information ( Zone 0 ) ----------------------
File writing frequency: 
+------------------------------------+
|                     File| Frequency|
+------------------------------------+
|                  RESTART|       150|
|                 PARAVIEW|       150|
|         SURFACE_PARAVIEW|       150|
+------------------------------------+
Writing the convergence history file every 1 inner iterations.
Writing the screen convergence history every 1 inner iterations.
The tabular file format is CSV (.csv).
Convergence history file name: history.
Forces breakdown file name: forces_breakdown.dat.
Surface file name: surface_flow.
Volume file name: flow.
Restart file name: restart_flow.

------------- Config File Boundary Information ( Zone 0 ) ---------------
+-----------------------------------------------------------------------+
|                        Marker Type|                        Marker Name|
+-----------------------------------------------------------------------+
|                          Far-field|                           FARFIELD|
+-----------------------------------------------------------------------+
|                     Heat flux wall|                      ORION_SURFACE|
+-----------------------------------------------------------------------+

-------------------- Output Preprocessing ( Zone 0 ) --------------------

WARNING: SURFACE_PRESSURE_DROP can only be computed for at least 2 surfaces (outlet, inlet, ...)

Screen output fields: INNER_ITER, WALL_TIME, MIN_DELTA_TIME, MAX_DELTA_TIME, MIN_CFL, MAX_CFL, AVG_CFL, RMS_DENSITY, RMS_MOMENTUM-X, RMS_MOMENTUM-Y, RMS_MOMENTUM-Z, RMS_ENERGY, RMS_NU_TILDE, DRAG
History output group(s): ITER, RMS_RES
Convergence field(s): RMS_DENSITY
Warning: No (valid) fields chosen for time convergence monitoring. Time convergence monitoring inactive.
Volume output fields: MACH, PRESSURE, TEMPERATURE, DENSITY, HEAT_FLUX, Y_PLUS, COORDINATES, SOLUTION

------------------- Geometry Preprocessing ( Zone 0 ) -------------------
Three dimensional problem.
62211324 grid points before partitioning.
190879888 volume elements before partitioning.
2 surface markers.
4104 boundary elements in index 0 (Marker = FARFIELD).
1824836 boundary elements in index 1 (Marker = ORION_SURFACE).
Executing the partitioning functions.
Building the graph adjacency structure.
Calling ParMETIS... graph partitioning complete (4959327 edge cuts).
Distributing ParMETIS coloring.
Rebalancing vertices.
Rebalancing volume element connectivity.
Rebalancing markers and surface elements.
66952290 vertices including ghost points. 
197997438 interior elements including halo cells. 
103171259 tetrahedra.
94500655 prisms.
325524 pyramids.
Establishing MPI communication patterns.
Setting point connectivity.
Renumbering points (Reverse Cuthill McKee Ordering).
Recomputing point connectivity.
Setting element connectivity.
Checking the numerical grid orientation.
All volume elements are correctly orientend.
All surface elements are correctly orientend.
Identifying edges and vertices.
Setting the control volume structure.
Volume of the computational grid: 535693.
Searching for the closest normal neighbors to the surfaces.
Storing a mapping from global to local point index.
Compute the surface curvature.
Max K: 132.896. Mean K: 3.9104. Standard deviation K: 7.49569.
Checking for periodicity.
Computing mesh quality statistics for the dual control volumes.
+--------------------------------------------------------------+
|           Mesh Quality Metric|        Minimum|        Maximum|
+--------------------------------------------------------------+
|    Orthogonality Angle (deg.)|        53.0661|             90|
|     CV Face Area Aspect Ratio|        1.01143|        75298.5|
|           CV Sub-Volume Ratio|        1.00029|        45.0258|
+--------------------------------------------------------------+
Finding max control volume width.
Communicating number of neighbors.
Reference area = 11.531 m^2.
Semi-span length = 2.49999 m.
Wetted area = 57.9072 m^2.
Area projection in the x-plane = 19.6343 m^2, y-plane = 11.531 m^2, z-plane = 11.531 m^2.
Max. coordinate in the x-direction = 2.575 m, y-direction = 2.49999 m, z-direction = 2.49999 m.
Min. coordinate in the x-direction = -0.71 m, y-direction = -2.49999 m, z-direction = -2.5 m.
Computing wall distances.

-------------------- Solver Preprocessing ( Zone 0 ) --------------------
Viscous flow: Computing pressure using the ideal gas law
based on the free-stream temperature and a density computed
from the Reynolds number.
Force coefficients computed using free-stream values.

-- Models:
+------------------------------------------------------------------------------+
|          Viscosity Model|        Conductivity Model|              Fluid Model|
+------------------------------------------------------------------------------+
|               SUTHERLAND|          CONSTANT_PRANDTL|             STANDARD_AIR|
+------------------------------------------------------------------------------+
-- Fluid properties:
+------------------------------------------------------------------------------+
|                  Name|    Dim. value|    Ref. value|      Unit|Non-dim. value|
+------------------------------------------------------------------------------+
|        Ref. Viscosity|     1.716e-05|       2455.73|   N.s/m^2|   6.98773e-09|
|      Sutherland Temp.|        273.15|        288.15|         K|      0.947944|
|     Sutherland Const.|         110.4|        288.15|         K|      0.383134|
+------------------------------------------------------------------------------+
|        Prandtl (Lam.)|             -|             -|         -|          0.72|
|       Prandtl (Turb.)|             -|             -|         -|           0.9|
+------------------------------------------------------------------------------+
|          Gas Constant|       287.058|       14467.7|  N.m/kg.K|     0.0198413|
|      Spec. Heat Ratio|             -|             -|         -|           1.4|
+------------------------------------------------------------------------------+
-- Initial and free-stream conditions:
+------------------------------------------------------------------------------+
|                  Name|    Dim. value|    Ref. value|      Unit|Non-dim. value|
+------------------------------------------------------------------------------+
|       Static Pressure|       99485.6|   5.01407e+06|        Pa|     0.0198413|
|               Density|       1.20274|       1.20274|    kg/m^3|             1|
|           Temperature|        288.15|        288.15|         K|             1|
|          Total Energy|   2.29123e+06|   4.16887e+06|   m^2/s^2|      0.549603|
|            Velocity-X|       1731.53|       2041.78|       m/s|      0.848048|
|            Velocity-Y|             0|       2041.78|       m/s|             0|
|            Velocity-Z|       1081.98|       2041.78|       m/s|      0.529919|
|    Velocity Magnitude|       2041.78|       2041.78|       m/s|             1|
+------------------------------------------------------------------------------+
|             Viscosity|    1.7893e-05|       2455.73|   N.s/m^2|    7.2862e-09|
|          Conductivity|             -|   3.55289e+07|   W/m^2.K|             -|
|     Turb. Kin. Energy|       15633.3|   4.16887e+06|   m^2/s^2|       0.00375|
|     Spec. Dissipation|   1.05085e+08|       2041.78|       1/s|       51467.1|
+------------------------------------------------------------------------------+
|           Mach Number|             -|             -|         -|             6|
|       Reynolds Number|             -|             -|         -|   6.86229e+08|
+------------------------------------------------------------------------------+
Initialize Jacobian structure (Navier-Stokes). MG level: 0.
Initialize Jacobian structure (SA model).

------------------- Numerics Preprocessing ( Zone 0 ) -------------------

----------------- Integration Preprocessing ( Zone 0 ) ------------------

------------------- Iteration Preprocessing ( Zone 0 ) ------------------
Euler/Navier-Stokes/RANS fluid iteration.

------------------------------ Begin Solver -----------------------------

Simulation Run using the Single-zone Driver
WARNING: SU2 was not compiled for an AVX-capable architecture. Performance could be better,
         see https://su2code.github.io/docs_v7/Build-SU2-Linux-MacOS/#compiler-optimizations
+-------------------------------------------------------------------------------------------------------------------------------------------------------------------------------------+
|  Inner_Iter|   Time(sec)|      Min DT|      Max DT|     Min CFL|     Max CFL|     Avg CFL|    rms[Rho]|   rms[RhoU]|   rms[RhoV]|   rms[RhoW]|   rms[RhoE]|     rms[nu]|          CD|
+-------------------------------------------------------------------------------------------------------------------------------------------------------------------------------------+
|           0|  3.5791e+01|  2.6519e-10|  4.5662e-02|  5.0000e-02|  5.0000e-02|  5.0000e-02|   -6.354916|   -6.498688|   -7.029714|   -6.595128|   -6.632921|   -8.833959|    1.759363|
|           1|  2.1623e+01|  4.4199e-10|  7.6103e-02|  5.5000e-02|  5.5000e-02|  5.5000e-02|   -6.354911|   -6.498679|   -7.029763|   -6.595134|   -6.632949|   -8.833853|    1.759363|
|           2|  1.6735e+01|  4.8619e-10|  8.3713e-02|  6.0500e-02|  6.0500e-02|  6.0500e-02|   -6.354899|   -6.498663|   -7.029841|   -6.595140|   -6.632991|   -8.833820|    1.759362|
|           3|  1.4307e+01|  5.3480e-10|  9.2084e-02|  6.6550e-02|  6.6550e-02|  6.6550e-02|   -6.354886|   -6.498645|   -7.029925|   -6.595147|   -6.633036|   -8.833784|    1.759362|
|           4|  1.2910e+01|  5.8828e-10|  1.0129e-01|  7.3205e-02|  7.3205e-02|  7.3205e-02|   -6.354871|   -6.498624|   -7.030016|   -6.595153|   -6.633085|   -8.833744|    1.759362|
|           5|  1.2011e+01|  6.4711e-10|  1.1142e-01|  8.0526e-02|  8.0526e-02|  8.0526e-02|   -6.354854|   -6.498602|   -7.030113|   -6.595160|   -6.633137|   -8.833700|    1.759362|
|           6|  1.1345e+01|  7.1182e-10|  1.2256e-01|  8.8578e-02|  8.8578e-02|  8.8578e-02|   -6.354834|   -6.498576|   -7.030217|   -6.595166|   -6.633193|   -8.833651|    1.759362|
|           7|  1.0840e+01|  7.8300e-10|  1.3482e-01|  9.7436e-02|  9.7436e-02|  9.7436e-02|   -6.354811|   -6.498548|   -7.030329|   -6.595171|   -6.633253|   -8.833597|    1.759361|
|           8|  1.0420e+01|  8.6130e-10|  1.4830e-01|  1.0718e-01|  1.0718e-01|  1.0718e-01|   -6.354785|   -6.498516|   -7.030448|   -6.595175|   -6.633317|   -8.833537|    1.759361|
|           9|  1.0097e+01|  9.4743e-10|  1.6313e-01|  1.1790e-01|  1.1790e-01|  1.1790e-01|   -6.354754|   -6.498481|   -7.030574|   -6.595178|   -6.633384|   -8.833471|    1.759361|
|          10|  9.8182e+00|  1.0422e-09|  1.7945e-01|  1.2969e-01|  1.2969e-01|  1.2969e-01|   -6.354719|   -6.498441|   -7.030707|   -6.595179|   -6.633454|   -8.833398|    1.759360|
|          11|  9.5749e+00|  1.1464e-09|  1.9739e-01|  1.4266e-01|  1.4266e-01|  1.4266e-01|   -6.354677|   -6.498395|   -7.030848|   -6.595178|   -6.633528|   -8.833317|    1.759360|
|          12|  9.4419e+00|  1.2610e-09|  2.1713e-01|  1.5692e-01|  1.5692e-01|  1.5692e-01|   -6.354629|   -6.498344|   -7.030995|   -6.595173|   -6.633605|   -8.833227|    1.759359|
|          13|  9.3268e+00|  1.3871e-09|  2.3884e-01|  1.7261e-01|  1.7261e-01|  1.7261e-01|   -6.354573|   -6.498286|   -7.031148|   -6.595164|   -6.633683|   -8.833127|    1.759359|
|          14|  9.2408e+00|  1.5258e-09|  2.6273e-01|  1.8987e-01|  1.8987e-01|  1.8987e-01|   -6.354507|   -6.498219|   -7.031306|   -6.595150|   -6.633763|   -8.833016|    1.759358|
|          15|  9.1658e+00|  1.6784e-09|  2.8900e-01|  2.0886e-01|  2.0886e-01|  2.0886e-01|   -6.354430|   -6.498143|   -7.031468|   -6.595129|   -6.633842|   -8.832893|    1.759358|
|          16|  9.0890e+00|  1.8462e-09|  3.1790e-01|  2.2975e-01|  2.2975e-01|  2.2975e-01|   -6.354340|   -6.498056|   -7.031633|   -6.595099|   -6.633919|   -8.832757|    1.759357|
|          17|  9.0212e+00|  2.0308e-09|  3.4969e-01|  2.5272e-01|  2.5272e-01|  2.5272e-01|   -6.354233|   -6.497954|   -7.031797|   -6.595059|   -6.633992|   -8.832605|    1.759356|
|          18|  8.9638e+00|  2.2339e-09|  3.8466e-01|  2.7800e-01|  2.7800e-01|  2.7800e-01|   -6.354107|   -6.497837|   -7.031960|   -6.595004|   -6.634059|   -8.832437|    1.759356|
|          19|  8.9049e+00|  2.4573e-09|  4.2313e-01|  3.0580e-01|  3.0580e-01|  3.0580e-01|   -6.353959|   -6.497699|   -7.032118|   -6.594933|   -6.634114|   -8.832250|    1.759355|
|          20|  8.8565e+00|  2.7030e-09|  4.6544e-01|  3.3637e-01|  3.3637e-01|  3.3637e-01|   -6.353783|   -6.497538|   -7.032267|   -6.594841|   -6.634153|   -8.832042|    1.759354|
|          21|  8.8243e+00|  2.9733e-09|  5.1198e-01|  3.7001e-01|  3.7001e-01|  3.7001e-01|   -6.353574|   -6.497347|   -7.032403|   -6.594722|   -6.634171|   -8.831810|    1.759353|
|          22|  8.8311e+00|  3.2706e-09|  5.6318e-01|  4.0701e-01|  4.0701e-01|  4.0701e-01|   -6.353325|   -6.497120|   -7.032520|   -6.594571|   -6.634158|   -8.831553|    1.759351|
|          23|  8.8282e+00|  3.5976e-09|  6.1950e-01|  4.4772e-01|  4.4772e-01|  4.4772e-01|   -6.353028|   -6.496849|   -7.032612|   -6.594379|   -6.634106|   -8.831266|    1.759350|
|          24|  8.8273e+00|  3.9573e-09|  6.8145e-01|  4.9249e-01|  4.9249e-01|  4.9249e-01|   -6.352672|   -6.496523|   -7.032671|   -6.594137|   -6.634000|   -8.830948|    1.759348|
|          25|  8.8263e+00|  4.3530e-09|  7.4959e-01|  5.0000e-01|  5.0000e-01|  5.0000e-01|   -6.352245|   -6.496129|   -7.032689|   -6.593833|   -6.633826|   -8.830593|    1.759347|
|          26|  8.8234e+00|  4.4194e-09|  7.6103e-01|  5.0000e-01|  5.0000e-01|  5.0000e-01|   -6.351732|   -6.495652|   -7.032656|   -6.593453|   -6.633563|   -8.830420|    1.759345|
|          27|  8.8229e+00|  4.4193e-09|  7.6103e-01|  5.0000e-01|  5.0000e-01|  5.0000e-01|   -6.351194|   -6.495147|   -7.032619|   -6.593051|   -6.633270|   -8.830282|    1.759343|
|          28|  8.8176e+00|  4.4193e-09|  7.6103e-01|  5.0000e-01|  5.0000e-01|  5.0000e-01|   -6.350647|   -6.494627|   -7.032589|   -6.592640|   -6.632961|   -8.830139|    1.759341|
|          29|  8.8146e+00|  4.4192e-09|  7.6103e-01|  5.0000e-01|  5.0000e-01|  5.0000e-01|   -6.350091|   -6.494092|   -7.032565|   -6.592220|   -6.632636|   -8.829993|    1.759340|
|          30|  8.8093e+00|  4.4192e-09|  7.6103e-01|  5.0000e-01|  5.0000e-01|  5.0000e-01|   -6.349525|   -6.493543|   -7.032548|   -6.591791|   -6.632296|   -8.829844|    1.759338|
|          31|  8.8082e+00|  4.4191e-09|  7.6103e-01|  5.0000e-01|  5.0000e-01|  5.0000e-01|   -6.348951|   -6.492981|   -7.032537|   -6.591354|   -6.631941|   -8.829691|    1.759336|
|          32|  8.8003e+00|  4.4191e-09|  7.6103e-01|  5.0000e-01|  5.0000e-01|  5.0000e-01|   -6.348368|   -6.492406|   -7.032531|   -6.590909|   -6.631573|   -8.829534|    1.759334|
|          33|  8.7949e+00|  4.4190e-09|  7.6103e-01|  5.0000e-01|  5.0000e-01|  5.0000e-01|   -6.347778|   -6.491820|   -7.032531|   -6.590458|   -6.631192|   -8.829375|    1.759332|
|          34|  8.7982e+00|  4.4189e-09|  7.6103e-01|  5.0000e-01|  5.0000e-01|  5.0000e-01|   -6.347181|   -6.491223|   -7.032537|   -6.590000|   -6.630800|   -8.829212|    1.759330|
|          35|  8.7988e+00|  4.4189e-09|  7.6103e-01|  5.0000e-01|  5.0000e-01|  5.0000e-01|   -6.346578|   -6.490616|   -7.032547|   -6.589536|   -6.630397|   -8.829046|    1.759328|
|          36|  8.7907e+00|  4.4188e-09|  7.6103e-01|  5.0000e-01|  5.0000e-01|  5.0000e-01|   -6.345969|   -6.490000|   -7.032563|   -6.589068|   -6.629983|   -8.828877|    1.759326|
|          37|  8.7832e+00|  4.4188e-09|  7.6103e-01|  5.0000e-01|  5.0000e-01|  5.0000e-01|   -6.345355|   -6.489375|   -7.032583|   -6.588595|   -6.629561|   -8.828705|    1.759324|
|          38|  8.7810e+00|  4.4187e-09|  7.6103e-01|  5.0000e-01|  5.0000e-01|  5.0000e-01|   -6.344736|   -6.488744|   -7.032607|   -6.588118|   -6.629132|   -8.828529|    1.759322|
|          39|  8.7794e+00|  4.4187e-09|  7.6103e-01|  5.0000e-01|  5.0000e-01|  5.0000e-01|   -6.344115|   -6.488107|   -7.032636|   -6.587638|   -6.628695|   -8.828351|    1.759320|
|          40|  8.7752e+00|  4.4186e-09|  7.6103e-01|  5.0000e-01|  5.0000e-01|  5.0000e-01|   -6.343490|   -6.487464|   -7.032669|   -6.587156|   -6.628252|   -8.828170|    1.759318|
|          41|  8.7689e+00|  4.4186e-09|  7.6103e-01|  5.0000e-01|  5.0000e-01|  5.0000e-01|   -6.342863|   -6.486817|   -7.032706|   -6.586672|   -6.627805|   -8.827987|    1.759316|
|          42|  8.7650e+00|  4.4185e-09|  7.6103e-01|  5.0000e-01|  5.0000e-01|  5.0000e-01|   -6.342235|   -6.486166|   -7.032747|   -6.586187|   -6.627354|   -8.827800|    1.759314|
|          43|  8.7674e+00|  4.4185e-09|  7.6103e-01|  5.0000e-01|  5.0000e-01|  5.0000e-01|   -6.341605|   -6.485513|   -7.032791|   -6.585701|   -6.626901|   -8.827612|    1.759312|
|          44|  8.7669e+00|  4.4184e-09|  7.6103e-01|  5.0000e-01|  5.0000e-01|  5.0000e-01|   -6.340976|   -6.484858|   -7.032839|   -6.585216|   -6.626445|   -8.827420|    1.759310|
|          45|  8.7659e+00|  4.4184e-09|  7.6103e-01|  5.0000e-01|  5.0000e-01|  5.0000e-01|   -6.340346|   -6.484202|   -7.032890|   -6.584731|   -6.625988|   -8.827227|    1.759308|
|          46|  8.7743e+00|  4.4183e-09|  7.6103e-01|  5.0000e-01|  5.0000e-01|  5.0000e-01|   -6.339718|   -6.483546|   -7.032945|   -6.584247|   -6.625530|   -8.827031|    1.759306|
|          47|  8.7755e+00|  4.4183e-09|  7.6103e-01|  5.0000e-01|  5.0000e-01|  5.0000e-01|   -6.339090|   -6.482890|   -7.033002|   -6.583764|   -6.625073|   -8.826832|    1.759303|
|          48|  8.7794e+00|  4.4182e-09|  7.6103e-01|  5.0000e-01|  5.0000e-01|  5.0000e-01|   -6.338464|   -6.482235|   -7.033062|   -6.583283|   -6.624617|   -8.826632|    1.759301|
|          49|  8.7818e+00|  4.4182e-09|  7.6103e-01|  5.0000e-01|  5.0000e-01|  5.0000e-01|   -6.337841|   -6.481581|   -7.033125|   -6.582804|   -6.624162|   -8.826430|    1.759299|
|          50|  8.7851e+00|  4.4181e-09|  7.6103e-01|  5.0000e-01|  5.0000e-01|  5.0000e-01|   -6.337220|   -6.480929|   -7.033191|   -6.582328|   -6.623709|   -8.826226|    1.759297|
|          51|  8.7816e+00|  4.4181e-09|  7.6103e-01|  5.0000e-01|  5.0000e-01|  5.0000e-01|   -6.336602|   -6.480280|   -7.033259|   -6.581854|   -6.623259|   -8.826021|    1.759295|
|          52|  8.7804e+00|  4.4180e-09|  7.6103e-01|  5.0000e-01|  5.0000e-01|  5.0000e-01|   -6.335987|   -6.479633|   -7.033329|   -6.581383|   -6.622811|   -8.825814|    1.759292|
|          53|  8.7808e+00|  4.4180e-09|  7.6103e-01|  5.0000e-01|  5.0000e-01|  5.0000e-01|   -6.335376|   -6.478990|   -7.033401|   -6.580915|   -6.622367|   -8.825605|    1.759290|
|          54|  8.7786e+00|  4.4179e-09|  7.6103e-01|  5.0000e-01|  5.0000e-01|  5.0000e-01|   -6.334768|   -6.478350|   -7.033475|   -6.580451|   -6.621927|   -8.825395|    1.759288|
|          55|  8.7762e+00|  4.4179e-09|  7.6103e-01|  5.0000e-01|  5.0000e-01|  5.0000e-01|   -6.334164|   -6.477714|   -7.033550|   -6.579990|   -6.621490|   -8.825183|    1.759286|
|          56|  8.7727e+00|  4.4178e-09|  7.6103e-01|  5.0000e-01|  5.0000e-01|  5.0000e-01|   -6.333565|   -6.477081|   -7.033628|   -6.579533|   -6.621057|   -8.824970|    1.759283|
|          57|  8.7711e+00|  4.4177e-09|  7.6103e-01|  5.0000e-01|  5.0000e-01|  5.0000e-01|   -6.332970|   -6.476454|   -7.033707|   -6.579080|   -6.620629|   -8.824755|    1.759281|
|          58|  8.7698e+00|  4.4177e-09|  7.6103e-01|  5.0000e-01|  5.0000e-01|  5.0000e-01|   -6.332379|   -6.475830|   -7.033787|   -6.578630|   -6.620205|   -8.824540|    1.759279|
|          59|  8.7660e+00|  4.4176e-09|  7.6103e-01|  5.0000e-01|  5.0000e-01|  5.0000e-01|   -6.331793|   -6.475211|   -7.033869|   -6.578184|   -6.619786|   -8.824323|    1.759276|
|          60|  8.7622e+00|  4.4176e-09|  7.6103e-01|  5.0000e-01|  5.0000e-01|  5.0000e-01|   -6.331211|   -6.474597|   -7.033952|   -6.577741|   -6.619371|   -8.824106|    1.759274|
|          61|  8.7686e+00|  4.4175e-09|  7.6103e-01|  5.0000e-01|  5.0000e-01|  5.0000e-01|   -6.330634|   -6.473987|   -7.034036|   -6.577303|   -6.618961|   -8.823888|    1.759271|
|          62|  8.7756e+00|  4.4175e-09|  7.6103e-01|  5.0000e-01|  5.0000e-01|  5.0000e-01|   -6.330063|   -6.473382|   -7.034121|   -6.576868|   -6.618555|   -8.823669|    1.759269|
|          63|  8.7816e+00|  4.4174e-09|  7.6103e-01|  5.0000e-01|  5.0000e-01|  5.0000e-01|   -6.329496|   -6.472782|   -7.034207|   -6.576438|   -6.618154|   -8.823449|    1.759266|
|          64|  8.7821e+00|  4.4174e-09|  7.6103e-01|  5.0000e-01|  5.0000e-01|  5.0000e-01|   -6.328933|   -6.472187|   -7.034294|   -6.576011|   -6.617758|   -8.823229|    1.759264|
|          65|  8.7830e+00|  4.4173e-09|  7.6103e-01|  5.0000e-01|  5.0000e-01|  5.0000e-01|   -6.328376|   -6.471596|   -7.034381|   -6.575587|   -6.617366|   -8.823009|    1.759262|
|          66|  8.7809e+00|  4.4173e-09|  7.6103e-01|  5.0000e-01|  5.0000e-01|  5.0000e-01|   -6.327823|   -6.471011|   -7.034470|   -6.575167|   -6.616978|   -8.822788|    1.759259|
|          67|  8.7814e+00|  4.4172e-09|  7.6103e-01|  5.0000e-01|  5.0000e-01|  5.0000e-01|   -6.327275|   -6.470429|   -7.034558|   -6.574751|   -6.616594|   -8.822568|    1.759257|
|          68|  8.7805e+00|  4.4172e-09|  7.6103e-01|  5.0000e-01|  5.0000e-01|  5.0000e-01|   -6.326732|   -6.469853|   -7.034648|   -6.574338|   -6.616214|   -8.822347|    1.759254|
|          69|  8.7782e+00|  4.4171e-09|  7.6103e-01|  5.0000e-01|  5.0000e-01|  5.0000e-01|   -6.326193|   -6.469281|   -7.034737|   -6.573928|   -6.615839|   -8.822126|    1.759252|
|          70|  8.7772e+00|  4.4171e-09|  7.6103e-01|  5.0000e-01|  5.0000e-01|  5.0000e-01|   -6.325659|   -6.468713|   -7.034827|   -6.573522|   -6.615467|   -8.821905|    1.759249|
|          71|  8.7758e+00|  4.4170e-09|  7.6103e-01|  5.0000e-01|  5.0000e-01|  5.0000e-01|   -6.325129|   -6.468149|   -7.034918|   -6.573119|   -6.615098|   -8.821685|    1.759246|
|          72|  8.7754e+00|  4.4170e-09|  7.6103e-01|  5.0000e-01|  5.0000e-01|  5.0000e-01|   -6.324604|   -6.467590|   -7.035008|   -6.572719|   -6.614734|   -8.821465|    1.759244|
|          73|  8.7756e+00|  4.4169e-09|  7.6103e-01|  5.0000e-01|  5.0000e-01|  5.0000e-01|   -6.324083|   -6.467035|   -7.035099|   -6.572322|   -6.614372|   -8.821245|    1.759241|
|          74|  8.7740e+00|  4.4169e-09|  7.6103e-01|  5.0000e-01|  5.0000e-01|  5.0000e-01|   -6.323566|   -6.466484|   -7.035190|   -6.571929|   -6.614014|   -8.821026|    1.759239|
|          75|  8.7758e+00|  4.4168e-09|  7.6103e-01|  5.0000e-01|  5.0000e-01|  5.0000e-01|   -6.323054|   -6.465937|   -7.035282|   -6.571538|   -6.613659|   -8.820807|    1.759236|
|          76|  8.7783e+00|  4.4168e-09|  7.6103e-01|  5.0000e-01|  5.0000e-01|  5.0000e-01|   -6.322545|   -6.465394|   -7.035374|   -6.571150|   -6.613307|   -8.820589|    1.759233|
|          77|  8.7808e+00|  4.4167e-09|  7.6103e-01|  5.0000e-01|  5.0000e-01|  5.0000e-01|   -6.322041|   -6.464854|   -7.035466|   -6.570765|   -6.612958|   -8.820372|    1.759231|
|          78|  8.7799e+00|  4.4167e-09|  7.6103e-01|  5.0000e-01|  5.0000e-01|  5.0000e-01|   -6.321540|   -6.464318|   -7.035558|   -6.570383|   -6.612611|   -8.820156|    1.759228|
|          79|  8.7810e+00|  4.4166e-09|  7.6103e-01|  5.0000e-01|  5.0000e-01|  5.0000e-01|   -6.321044|   -6.463786|   -7.035650|   -6.570003|   -6.612267|   -8.819941|    1.759225|
|          80|  8.7803e+00|  4.4166e-09|  7.6103e-01|  5.0000e-01|  5.0000e-01|  5.0000e-01|   -6.320551|   -6.463257|   -7.035743|   -6.569626|   -6.611925|   -8.819727|    1.759223|
|          81|  8.7821e+00|  4.4165e-09|  7.6103e-01|  5.0000e-01|  5.0000e-01|  5.0000e-01|   -6.320062|   -6.462731|   -7.035836|   -6.569252|   -6.611586|   -8.819515|    1.759220|
|          82|  8.7845e+00|  4.4165e-09|  7.6103e-01|  5.0000e-01|  5.0000e-01|  5.0000e-01|   -6.319576|   -6.462209|   -7.035929|   -6.568880|   -6.611248|   -8.819303|    1.759217|
|          83|  8.7849e+00|  4.4164e-09|  7.6103e-01|  5.0000e-01|  5.0000e-01|  5.0000e-01|   -6.319094|   -6.461690|   -7.036022|   -6.568511|   -6.610913|   -8.819093|    1.759214|
|          84|  8.7882e+00|  4.4164e-09|  7.6103e-01|  5.0000e-01|  5.0000e-01|  5.0000e-01|   -6.318616|   -6.461173|   -7.036116|   -6.568144|   -6.610579|   -8.818885|    1.759212|
|          85|  8.7970e+00|  4.4163e-09|  7.6103e-01|  5.0000e-01|  5.0000e-01|  5.0000e-01|   -6.318141|   -6.460660|   -7.036210|   -6.567779|   -6.610248|   -8.818678|    1.759209|
|          86|  8.8012e+00|  4.4163e-09|  7.6103e-01|  5.0000e-01|  5.0000e-01|  5.0000e-01|   -6.317669|   -6.460149|   -7.036304|   -6.567417|   -6.609918|   -8.818473|    1.759206|
|          87|  8.8026e+00|  4.4162e-09|  7.6103e-01|  5.0000e-01|  5.0000e-01|  5.0000e-01|   -6.317201|   -6.459642|   -7.036399|   -6.567057|   -6.609589|   -8.818269|    1.759203|
|          88|  8.8015e+00|  4.4162e-09|  7.6103e-01|  5.0000e-01|  5.0000e-01|  5.0000e-01|   -6.316735|   -6.459137|   -7.036494|   -6.566699|   -6.609263|   -8.818068|    1.759201|
|          89|  8.8087e+00|  4.4161e-09|  7.6103e-01|  5.0000e-01|  5.0000e-01|  5.0000e-01|   -6.316274|   -6.458635|   -7.036590|   -6.566344|   -6.608937|   -8.817868|    1.759198|
|          90|  8.8147e+00|  4.4161e-09|  7.6103e-01|  5.0000e-01|  5.0000e-01|  5.0000e-01|   -6.315815|   -6.458136|   -7.036686|   -6.565991|   -6.608613|   -8.817671|    1.759195|
|          91|  8.8214e+00|  4.4160e-09|  7.6103e-01|  5.0000e-01|  5.0000e-01|  5.0000e-01|   -6.315359|   -6.457639|   -7.036783|   -6.565640|   -6.608291|   -8.817475|    1.759192|
|          92|  8.8254e+00|  4.4159e-09|  7.6103e-01|  5.0000e-01|  5.0000e-01|  5.0000e-01|   -6.314907|   -6.457145|   -7.036880|   -6.565291|   -6.607969|   -8.817282|    1.759189|
|          93|  8.8316e+00|  4.4159e-09|  7.6103e-01|  5.0000e-01|  5.0000e-01|  5.0000e-01|   -6.314458|   -6.456653|   -7.036978|   -6.564944|   -6.607649|   -8.817091|    1.759186|
|          94|  8.8359e+00|  4.4158e-09|  7.6103e-01|  5.0000e-01|  5.0000e-01|  5.0000e-01|   -6.314012|   -6.456165|   -7.037076|   -6.564600|   -6.607330|   -8.816902|    1.759183|
|          95|  8.8382e+00|  4.4158e-09|  7.6103e-01|  5.0000e-01|  5.0000e-01|  5.0000e-01|   -6.313569|   -6.455678|   -7.037175|   -6.564257|   -6.607013|   -8.816716|    1.759181|
|          96|  8.8411e+00|  4.4157e-09|  7.6103e-01|  5.0000e-01|  5.0000e-01|  5.0000e-01|   -6.313129|   -6.455195|   -7.037275|   -6.563917|   -6.606696|   -8.816533|    1.759178|
|          97|  8.8460e+00|  4.4157e-09|  7.6103e-01|  5.0000e-01|  5.0000e-01|  5.0000e-01|   -6.312692|   -6.454714|   -7.037375|   -6.563579|   -6.606381|   -8.816352|    1.759175|
|          98|  8.8497e+00|  4.4156e-09|  7.6103e-01|  5.0000e-01|  5.0000e-01|  5.0000e-01|   -6.312258|   -6.454235|   -7.037475|   -6.563243|   -6.606066|   -8.816174|    1.759172|
|          99|  8.8524e+00|  4.4156e-09|  7.6103e-01|  5.0000e-01|  5.0000e-01|  5.0000e-01|   -6.311828|   -6.453760|   -7.037577|   -6.562910|   -6.605753|   -8.815998|    1.759169|
|         100|  8.8559e+00|  4.4155e-09|  7.6103e-01|  5.0000e-01|  5.0000e-01|  5.0000e-01|   -6.311400|   -6.453287|   -7.037679|   -6.562579|   -6.605441|   -8.815826|    1.759166|
|         101|  8.8604e+00|  4.4155e-09|  7.6103e-01|  5.0000e-01|  5.0000e-01|  5.0000e-01|   -6.310976|   -6.452816|   -7.037781|   -6.562250|   -6.605130|   -8.815657|    1.759163|
|         102|  8.8676e+00|  4.4154e-09|  7.6103e-01|  5.0000e-01|  5.0000e-01|  5.0000e-01|   -6.310555|   -6.452349|   -7.037884|   -6.561923|   -6.604821|   -8.815490|    1.759160|
|         103|  8.8715e+00|  4.4154e-09|  7.6103e-01|  5.0000e-01|  5.0000e-01|  5.0000e-01|   -6.310137|   -6.451884|   -7.037988|   -6.561599|   -6.604512|   -8.815327|    1.759157|
|         104|  8.8765e+00|  4.4153e-09|  7.6103e-01|  5.0000e-01|  5.0000e-01|  5.0000e-01|   -6.309723|   -6.451422|   -7.038093|   -6.561278|   -6.604205|   -8.815167|    1.759154|
|         105|  8.8805e+00|  4.4153e-09|  7.6103e-01|  5.0000e-01|  5.0000e-01|  5.0000e-01|   -6.309312|   -6.450964|   -7.038198|   -6.560959|   -6.603899|   -8.815010|    1.759151|
|         106|  8.8825e+00|  4.4152e-09|  7.6103e-01|  5.0000e-01|  5.0000e-01|  5.0000e-01|   -6.308904|   -6.450508|   -7.038305|   -6.560642|   -6.603595|   -8.814856|    1.759148|
|         107|  8.8854e+00|  4.4152e-09|  7.6103e-01|  5.0000e-01|  5.0000e-01|  5.0000e-01|   -6.308500|   -6.450055|   -7.038412|   -6.560328|   -6.603292|   -8.814706|    1.759145|
|         108|  8.8881e+00|  4.4151e-09|  7.6103e-01|  5.0000e-01|  5.0000e-01|  5.0000e-01|   -6.308100|   -6.449605|   -7.038519|   -6.560016|   -6.602990|   -8.814560|    1.759142|
|         109|  8.8898e+00|  4.4151e-09|  7.6103e-01|  5.0000e-01|  5.0000e-01|  5.0000e-01|   -6.307702|   -6.449159|   -7.038628|   -6.559707|   -6.602690|   -8.814417|    1.759139|
|         110|  8.8932e+00|  4.4150e-09|  7.6103e-01|  5.0000e-01|  5.0000e-01|  5.0000e-01|   -6.307309|   -6.448716|   -7.038737|   -6.559401|   -6.602392|   -8.814278|    1.759135|
|         111|  8.8950e+00|  4.4150e-09|  7.6103e-01|  5.0000e-01|  5.0000e-01|  5.0000e-01|   -6.306919|   -6.448276|   -7.038847|   -6.559098|   -6.602095|   -8.814142|    1.759132|
|         112|  8.8982e+00|  4.4149e-09|  7.6103e-01|  5.0000e-01|  5.0000e-01|  5.0000e-01|   -6.306533|   -6.447839|   -7.038957|   -6.558797|   -6.601800|   -8.814011|    1.759129|
|         113|  8.8992e+00|  4.4149e-09|  7.6103e-01|  5.0000e-01|  5.0000e-01|  5.0000e-01|   -6.306151|   -6.447406|   -7.039068|   -6.558500|   -6.601507|   -8.813883|    1.759126|
|         114|  8.9031e+00|  4.4148e-09|  7.6103e-01|  5.0000e-01|  5.0000e-01|  5.0000e-01|   -6.305772|   -6.446977|   -7.039180|   -6.558206|   -6.601216|   -8.813759|    1.759123|
|         115|  8.9099e+00|  4.4148e-09|  7.6103e-01|  5.0000e-01|  5.0000e-01|  5.0000e-01|   -6.305398|   -6.446551|   -7.039292|   -6.557914|   -6.600927|   -8.813639|    1.759120|
|         116|  8.9161e+00|  4.4147e-09|  7.6103e-01|  5.0000e-01|  5.0000e-01|  5.0000e-01|   -6.305027|   -6.446129|   -7.039405|   -6.557626|   -6.600640|   -8.813523|    1.759117|
|         117|  8.9203e+00|  4.4147e-09|  7.6103e-01|  5.0000e-01|  5.0000e-01|  5.0000e-01|   -6.304660|   -6.445711|   -7.039519|   -6.557341|   -6.600355|   -8.813412|    1.759114|
|         118|  8.9240e+00|  4.4146e-09|  7.6103e-01|  5.0000e-01|  5.0000e-01|  5.0000e-01|   -6.304298|   -6.445296|   -7.039633|   -6.557059|   -6.600071|   -8.813305|    1.759110|
|         119|  8.9271e+00|  4.4146e-09|  7.6103e-01|  5.0000e-01|  5.0000e-01|  5.0000e-01|   -6.303939|   -6.444885|   -7.039748|   -6.556779|   -6.599790|   -8.813201|    1.759107|
|         120|  8.9307e+00|  4.4145e-09|  7.6103e-01|  5.0000e-01|  5.0000e-01|  5.0000e-01|   -6.303584|   -6.444478|   -7.039863|   -6.556503|   -6.599511|   -8.813103|    1.759104|
|         121|  8.9330e+00|  4.4145e-09|  7.6103e-01|  5.0000e-01|  5.0000e-01|  5.0000e-01|   -6.303233|   -6.444074|   -7.039979|   -6.556231|   -6.599235|   -8.813009|    1.759101|
|         122|  8.9358e+00|  4.4144e-09|  7.6103e-01|  5.0000e-01|  5.0000e-01|  5.0000e-01|   -6.302886|   -6.443675|   -7.040096|   -6.555961|   -6.598960|   -8.812919|    1.759098|
|         123|  8.9387e+00|  4.4144e-09|  7.6103e-01|  5.0000e-01|  5.0000e-01|  5.0000e-01|   -6.302544|   -6.443280|   -7.040213|   -6.555695|   -6.598688|   -8.812834|    1.759094|
|         124|  8.9425e+00|  4.4143e-09|  7.6103e-01|  5.0000e-01|  5.0000e-01|  5.0000e-01|   -6.302205|   -6.442888|   -7.040331|   -6.555432|   -6.598419|   -8.812753|    1.759091|
|         125|  8.9446e+00|  4.4143e-09|  7.6103e-01|  5.0000e-01|  5.0000e-01|  5.0000e-01|   -6.301871|   -6.442501|   -7.040450|   -6.555172|   -6.598152|   -8.812677|    1.759088|
|         126|  8.9478e+00|  4.4142e-09|  7.6103e-01|  5.0000e-01|  5.0000e-01|  5.0000e-01|   -6.301541|   -6.442118|   -7.040569|   -6.554916|   -6.597887|   -8.812606|    1.759085|
|         127|  8.9522e+00|  4.4142e-09|  7.6103e-01|  5.0000e-01|  5.0000e-01|  5.0000e-01|   -6.301215|   -6.441739|   -7.040689|   -6.554663|   -6.597625|   -8.812540|    1.759082|
|         128|  8.9575e+00|  4.4141e-09|  7.6103e-01|  5.0000e-01|  5.0000e-01|  5.0000e-01|   -6.300894|   -6.441364|   -7.040809|   -6.554414|   -6.597365|   -8.812479|    1.759078|
|         129|  8.9610e+00|  4.4141e-09|  7.6103e-01|  5.0000e-01|  5.0000e-01|  5.0000e-01|   -6.300577|   -6.440993|   -7.040930|   -6.554168|   -6.597108|   -8.812422|    1.759075|
|         130|  8.9647e+00|  4.4141e-09|  7.6103e-01|  5.0000e-01|  5.0000e-01|  5.0000e-01|   -6.300264|   -6.440626|   -7.041052|   -6.553925|   -6.596854|   -8.812371|    1.759072|
|         131|  8.9683e+00|  4.4140e-09|  7.6103e-01|  5.0000e-01|  5.0000e-01|  5.0000e-01|   -6.299955|   -6.440264|   -7.041175|   -6.553686|   -6.596602|   -8.812324|    1.759068|
|         132|  8.9699e+00|  4.4140e-09|  7.6103e-01|  5.0000e-01|  5.0000e-01|  5.0000e-01|   -6.299651|   -6.439905|   -7.041298|   -6.553451|   -6.596353|   -8.812283|    1.759065|
|         133|  8.9706e+00|  4.4139e-09|  7.6103e-01|  5.0000e-01|  5.0000e-01|  5.0000e-01|   -6.299351|   -6.439551|   -7.041423|   -6.553219|   -6.596107|   -8.812247|    1.759062|
|         134|  8.9734e+00|  4.4139e-09|  7.6103e-01|  5.0000e-01|  5.0000e-01|  5.0000e-01|   -6.299056|   -6.439202|   -7.041547|   -6.552990|   -6.595864|   -8.812216|    1.759059|
|         135|  8.9771e+00|  4.4138e-09|  7.6103e-01|  5.0000e-01|  5.0000e-01|  5.0000e-01|   -6.298765|   -6.438856|   -7.041673|   -6.552765|   -6.595623|   -8.812190|    1.759055|
|         136|  8.9793e+00|  4.4138e-09|  7.6103e-01|  5.0000e-01|  5.0000e-01|  5.0000e-01|   -6.298478|   -6.438515|   -7.041799|   -6.552544|   -6.595385|   -8.812169|    1.759052|
|         137|  8.9811e+00|  4.4137e-09|  7.6103e-01|  5.0000e-01|  5.0000e-01|  5.0000e-01|   -6.298196|   -6.438179|   -7.041926|   -6.552326|   -6.595151|   -8.812154|    1.759049|
|         138|  8.9836e+00|  4.4137e-09|  7.6103e-01|  5.0000e-01|  5.0000e-01|  5.0000e-01|   -6.297919|   -6.437847|   -7.042054|   -6.552112|   -6.594919|   -8.812145|    1.759045|
|         139|  8.9877e+00|  4.4136e-09|  7.6103e-01|  5.0000e-01|  5.0000e-01|  5.0000e-01|   -6.297645|   -6.437519|   -7.042183|   -6.551902|   -6.594689|   -8.812141|    1.759042|
|         140|  8.9910e+00|  4.4136e-09|  7.6103e-01|  5.0000e-01|  5.0000e-01|  5.0000e-01|   -6.297377|   -6.437196|   -7.042312|   -6.551695|   -6.594463|   -8.812142|    1.759039|
|         141|  8.9911e+00|  4.4135e-09|  7.6103e-01|  5.0000e-01|  5.0000e-01|  5.0000e-01|   -6.297113|   -6.436877|   -7.042443|   -6.551492|   -6.594240|   -8.812149|    1.759035|
|         142|  8.9928e+00|  4.4135e-09|  7.6103e-01|  5.0000e-01|  5.0000e-01|  5.0000e-01|   -6.296854|   -6.436562|   -7.042574|   -6.551293|   -6.594020|   -8.812162|    1.759032|
|         143|  8.9939e+00|  4.4134e-09|  7.6103e-01|  5.0000e-01|  5.0000e-01|  5.0000e-01|   -6.296599|   -6.436253|   -7.042706|   -6.551097|   -6.593803|   -8.812180|    1.759028|
|         144|  8.9951e+00|  4.4134e-09|  7.6103e-01|  5.0000e-01|  5.0000e-01|  5.0000e-01|   -6.296349|   -6.435947|   -7.042838|   -6.550905|   -6.593589|   -8.812204|    1.759025|
|         145|  8.9951e+00|  4.4133e-09|  7.6103e-01|  5.0000e-01|  5.0000e-01|  5.0000e-01|   -6.296103|   -6.435647|   -7.042972|   -6.550717|   -6.593378|   -8.812233|    1.759022|
|         146|  8.9976e+00|  4.4133e-09|  7.6103e-01|  5.0000e-01|  5.0000e-01|  5.0000e-01|   -6.295862|   -6.435351|   -7.043106|   -6.550533|   -6.593170|   -8.812269|    1.759018|
|         147|  8.9987e+00|  4.4132e-09|  7.6103e-01|  5.0000e-01|  5.0000e-01|  5.0000e-01|   -6.295627|   -6.435060|   -7.043241|   -6.550353|   -6.592966|   -8.812310|    1.759015|
|         148|  8.9993e+00|  4.4132e-09|  7.6103e-01|  5.0000e-01|  5.0000e-01|  5.0000e-01|   -6.295395|   -6.434773|   -7.043377|   -6.550176|   -6.592764|   -8.812358|    1.759011|
|         149|  9.0009e+00|  4.4131e-09|  7.6103e-01|  5.0000e-01|  5.0000e-01|  5.0000e-01|   -6.295169|   -6.434492|   -7.043513|   -6.550004|   -6.592566|   -8.812411|    1.759008|
|         150|  9.0029e+00|  4.4131e-09|  7.6103e-01|  5.0000e-01|  5.0000e-01|  5.0000e-01|   -6.294947|   -6.434215|   -7.043650|   -6.549836|   -6.592372|   -8.812470|    1.759005|
+-----------------------------------------------------------------------+
|        File Writing Summary       |              Filename             |
+-----------------------------------------------------------------------+
|SU2 binary restart                 |restart_flow.dat                   |
|Paraview                           |flow.vtu                           |
|Paraview surface                   |surface_flow.vtu                   |
+-----------------------------------------------------------------------+
+-------------------------------------------------------------------------------------------------------------------------------------------------------------------------------------+
|  Inner_Iter|   Time(sec)|      Min DT|      Max DT|     Min CFL|     Max CFL|     Avg CFL|    rms[Rho]|   rms[RhoU]|   rms[RhoV]|   rms[RhoW]|   rms[RhoE]|     rms[nu]|          CD|
+-------------------------------------------------------------------------------------------------------------------------------------------------------------------------------------+
|         151|  9.1619e+00|  4.4130e-09|  7.6103e-01|  5.0000e-01|  5.0000e-01|  5.0000e-01|   -6.294731|   -6.433943|   -7.043788|   -6.549671|   -6.592180|   -8.812536|    1.759001|
|         152|  9.1653e+00|  4.4130e-09|  7.6103e-01|  5.0000e-01|  5.0000e-01|  5.0000e-01|   -6.294519|   -6.433676|   -7.043927|   -6.549511|   -6.591993|   -8.812607|    1.758998|
|         153|  9.1678e+00|  4.4129e-09|  7.6103e-01|  5.0000e-01|  5.0000e-01|  5.0000e-01|   -6.294312|   -6.433413|   -7.044066|   -6.549354|   -6.591808|   -8.812685|    1.758994|
|         154|  9.1689e+00|  4.4129e-09|  7.6103e-01|  5.0000e-01|  5.0000e-01|  5.0000e-01|   -6.294109|   -6.433156|   -7.044206|   -6.549202|   -6.591627|   -8.812769|    1.758991|
|         155|  9.1708e+00|  4.4128e-09|  7.6103e-01|  5.0000e-01|  5.0000e-01|  5.0000e-01|   -6.293912|   -6.432903|   -7.044347|   -6.549054|   -6.591449|   -8.812859|    1.758987|
|         156|  9.1699e+00|  4.4128e-09|  7.6103e-01|  5.0000e-01|  5.0000e-01|  5.0000e-01|   -6.293720|   -6.432656|   -7.044488|   -6.548910|   -6.591275|   -8.812956|    1.758984|
|         157|  9.1685e+00|  4.4127e-09|  7.6103e-01|  5.0000e-01|  5.0000e-01|  5.0000e-01|   -6.293532|   -6.432413|   -7.044630|   -6.548770|   -6.591105|   -8.813058|    1.758980|
|         158|  9.1667e+00|  4.4127e-09|  7.6103e-01|  5.0000e-01|  5.0000e-01|  5.0000e-01|   -6.293350|   -6.432175|   -7.044773|   -6.548635|   -6.590937|   -8.813168|    1.758977|
|         159|  9.1657e+00|  4.4127e-09|  7.6103e-01|  5.0000e-01|  5.0000e-01|  5.0000e-01|   -6.293172|   -6.431942|   -7.044916|   -6.548503|   -6.590774|   -8.813283|    1.758974|
|         160|  9.1639e+00|  4.4126e-09|  7.6103e-01|  5.0000e-01|  5.0000e-01|  5.0000e-01|   -6.292999|   -6.431714|   -7.045060|   -6.548376|   -6.590614|   -8.813405|    1.758970|
|         161|  9.1619e+00|  4.4126e-09|  7.6103e-01|  5.0000e-01|  5.0000e-01|  5.0000e-01|   -6.292832|   -6.431491|   -7.045205|   -6.548253|   -6.590458|   -8.813534|    1.758967|
|         162|  9.1599e+00|  4.4125e-09|  7.6103e-01|  5.0000e-01|  5.0000e-01|  5.0000e-01|   -6.292669|   -6.431273|   -7.045351|   -6.548134|   -6.590306|   -8.813669|    1.758963|
|         163|  9.1580e+00|  4.4125e-09|  7.6103e-01|  5.0000e-01|  5.0000e-01|  5.0000e-01|   -6.292512|   -6.431061|   -7.045497|   -6.548020|   -6.590157|   -8.813811|    1.758960|
|         164|  9.1562e+00|  4.4124e-09|  7.6103e-01|  5.0000e-01|  5.0000e-01|  5.0000e-01|   -6.292360|   -6.430853|   -7.045645|   -6.547910|   -6.590012|   -8.813960|    1.758956|
|         165|  9.1545e+00|  4.4124e-09|  7.6103e-01|  5.0000e-01|  5.0000e-01|  5.0000e-01|   -6.292212|   -6.430650|   -7.045793|   -6.547804|   -6.589870|   -8.814115|    1.758953|
|         166|  9.1528e+00|  4.4123e-09|  7.6103e-01|  5.0000e-01|  5.0000e-01|  5.0000e-01|   -6.292070|   -6.430453|   -7.045942|   -6.547702|   -6.589733|   -8.814277|    1.758949|
|         167|  9.1506e+00|  4.4123e-09|  7.6103e-01|  5.0000e-01|  5.0000e-01|  5.0000e-01|   -6.291933|   -6.430260|   -7.046092|   -6.547605|   -6.589599|   -8.814446|    1.758946|
|         168|  9.1491e+00|  4.4122e-09|  7.6103e-01|  5.0000e-01|  5.0000e-01|  5.0000e-01|   -6.291800|   -6.430073|   -7.046242|   -6.547512|   -6.589469|   -8.814622|    1.758942|
|         169|  9.1482e+00|  4.4122e-09|  7.6103e-01|  5.0000e-01|  5.0000e-01|  5.0000e-01|   -6.291673|   -6.429891|   -7.046393|   -6.547423|   -6.589343|   -8.814804|    1.758939|
|         170|  9.1468e+00|  4.4121e-09|  7.6103e-01|  5.0000e-01|  5.0000e-01|  5.0000e-01|   -6.291551|   -6.429713|   -7.046545|   -6.547339|   -6.589220|   -8.814994|    1.758935|
|         171|  9.1448e+00|  4.4121e-09|  7.6103e-01|  5.0000e-01|  5.0000e-01|  5.0000e-01|   -6.291433|   -6.429541|   -7.046698|   -6.547258|   -6.589101|   -8.815191|    1.758931|
|         172|  9.1424e+00|  4.4120e-09|  7.6103e-01|  5.0000e-01|  5.0000e-01|  5.0000e-01|   -6.291321|   -6.429374|   -7.046851|   -6.547182|   -6.588986|   -8.815394|    1.758928|
|         173|  9.1410e+00|  4.4120e-09|  7.6103e-01|  5.0000e-01|  5.0000e-01|  5.0000e-01|   -6.291214|   -6.429211|   -7.047005|   -6.547111|   -6.588875|   -8.815605|    1.758924|
|         174|  9.1403e+00|  4.4120e-09|  7.6103e-01|  5.0000e-01|  5.0000e-01|  5.0000e-01|   -6.291112|   -6.429054|   -7.047160|   -6.547043|   -6.588767|   -8.815823|    1.758921|
|         175|  9.1389e+00|  4.4119e-09|  7.6103e-01|  5.0000e-01|  5.0000e-01|  5.0000e-01|   -6.291015|   -6.428902|   -7.047316|   -6.546980|   -6.588663|   -8.816048|    1.758917|
|         176|  9.1364e+00|  4.4119e-09|  7.6103e-01|  5.0000e-01|  5.0000e-01|  5.0000e-01|   -6.290922|   -6.428755|   -7.047472|   -6.546921|   -6.588563|   -8.816280|    1.758914|
|         177|  9.1348e+00|  4.4118e-09|  7.6103e-01|  5.0000e-01|  5.0000e-01|  5.0000e-01|   -6.290835|   -6.428613|   -7.047630|   -6.546866|   -6.588467|   -8.816520|    1.758910|
|         178|  9.1354e+00|  4.4118e-09|  7.6103e-01|  5.0000e-01|  5.0000e-01|  5.0000e-01|   -6.290753|   -6.428476|   -7.047788|   -6.546816|   -6.588374|   -8.816767|    1.758907|
|         179|  9.1339e+00|  4.4117e-09|  7.6103e-01|  5.0000e-01|  5.0000e-01|  5.0000e-01|   -6.290676|   -6.428344|   -7.047947|   -6.546769|   -6.588285|   -8.817021|    1.758903|
|         180|  9.1311e+00|  4.4117e-09|  7.6103e-01|  5.0000e-01|  5.0000e-01|  5.0000e-01|   -6.290604|   -6.428217|   -7.048106|   -6.546727|   -6.588200|   -8.817283|    1.758900|
|         181|  9.1306e+00|  4.4116e-09|  7.6103e-01|  5.0000e-01|  5.0000e-01|  5.0000e-01|   -6.290537|   -6.428095|   -7.048267|   -6.546690|   -6.588119|   -8.817552|    1.758896|
|         182|  9.1288e+00|  4.4116e-09|  7.6103e-01|  5.0000e-01|  5.0000e-01|  5.0000e-01|   -6.290475|   -6.427978|   -7.048428|   -6.546656|   -6.588041|   -8.817828|    1.758893|
|         183|  9.1272e+00|  4.4115e-09|  7.6103e-01|  5.0000e-01|  5.0000e-01|  5.0000e-01|   -6.290418|   -6.427867|   -7.048590|   -6.546627|   -6.587967|   -8.818113|    1.758889|
|         184|  9.1244e+00|  4.4115e-09|  7.6103e-01|  5.0000e-01|  5.0000e-01|  5.0000e-01|   -6.290366|   -6.427760|   -7.048752|   -6.546602|   -6.587897|   -8.818404|    1.758885|
|         185|  9.1221e+00|  4.4115e-09|  7.6103e-01|  5.0000e-01|  5.0000e-01|  5.0000e-01|   -6.290319|   -6.427659|   -7.048916|   -6.546581|   -6.587831|   -8.818704|    1.758882|
|         186|  9.1198e+00|  4.4114e-09|  7.6103e-01|  5.0000e-01|  5.0000e-01|  5.0000e-01|   -6.290277|   -6.427562|   -7.049080|   -6.546565|   -6.587769|   -8.819011|    1.758878|
|         187|  9.1173e+00|  4.4114e-09|  7.6103e-01|  5.0000e-01|  5.0000e-01|  5.0000e-01|   -6.290240|   -6.427471|   -7.049245|   -6.546553|   -6.587711|   -8.819325|    1.758875|
|         188|  9.1150e+00|  4.4113e-09|  7.6103e-01|  5.0000e-01|  5.0000e-01|  5.0000e-01|   -6.290208|   -6.427385|   -7.049411|   -6.546545|   -6.587656|   -8.819648|    1.758871|
|         189|  9.1125e+00|  4.4113e-09|  7.6103e-01|  5.0000e-01|  5.0000e-01|  5.0000e-01|   -6.290182|   -6.427304|   -7.049577|   -6.546542|   -6.587605|   -8.819978|    1.758868|
|         190|  9.1105e+00|  4.4112e-09|  7.6103e-01|  5.0000e-01|  5.0000e-01|  5.0000e-01|   -6.290160|   -6.427228|   -7.049745|   -6.546543|   -6.587558|   -8.820316|    1.758864|
|         191|  9.1091e+00|  4.4112e-09|  7.6103e-01|  5.0000e-01|  5.0000e-01|  5.0000e-01|   -6.290144|   -6.427158|   -7.049913|   -6.546548|   -6.587515|   -8.820662|    1.758860|
|         192|  9.1087e+00|  4.4111e-09|  7.6103e-01|  5.0000e-01|  5.0000e-01|  5.0000e-01|   -6.290133|   -6.427093|   -7.050082|   -6.546558|   -6.587476|   -8.821016|    1.758857|
|         193|  9.1071e+00|  4.4111e-09|  7.6103e-01|  5.0000e-01|  5.0000e-01|  5.0000e-01|   -6.290127|   -6.427033|   -7.050251|   -6.546572|   -6.587441|   -8.821378|    1.758853|
|         194|  9.1054e+00|  4.4110e-09|  7.6103e-01|  5.0000e-01|  5.0000e-01|  5.0000e-01|   -6.290126|   -6.426978|   -7.050422|   -6.546591|   -6.587410|   -8.821747|    1.758850|
|         195|  9.1032e+00|  4.4110e-09|  7.6103e-01|  5.0000e-01|  5.0000e-01|  5.0000e-01|   -6.290130|   -6.426928|   -7.050593|   -6.546614|   -6.587383|   -8.822125|    1.758846|
|         196|  9.1026e+00|  4.4110e-09|  7.6103e-01|  5.0000e-01|  5.0000e-01|  5.0000e-01|   -6.290140|   -6.426884|   -7.050765|   -6.546641|   -6.587360|   -8.822511|    1.758842|
|         197|  9.1015e+00|  4.4109e-09|  7.6103e-01|  5.0000e-01|  5.0000e-01|  5.0000e-01|   -6.290155|   -6.426845|   -7.050938|   -6.546673|   -6.587341|   -8.822904|    1.758839|
|         198|  9.0999e+00|  4.4109e-09|  7.6103e-01|  5.0000e-01|  5.0000e-01|  5.0000e-01|   -6.290175|   -6.426812|   -7.051111|   -6.546710|   -6.587326|   -8.823306|    1.758835|
|         199|  9.0977e+00|  4.4108e-09|  7.6103e-01|  5.0000e-01|  5.0000e-01|  5.0000e-01|   -6.290200|   -6.426784|   -7.051286|   -6.546751|   -6.587315|   -8.823716|    1.758832|
|         200|  9.0961e+00|  4.4108e-09|  7.6103e-01|  5.0000e-01|  5.0000e-01|  5.0000e-01|   -6.290230|   -6.426761|   -7.051461|   -6.546796|   -6.587309|   -8.824134|    1.758828|
|         201|  9.0937e+00|  4.4107e-09|  7.6103e-01|  5.0000e-01|  5.0000e-01|  5.0000e-01|   -6.290266|   -6.426744|   -7.051637|   -6.546846|   -6.587306|   -8.824560|    1.758825|
|         202|  9.0924e+00|  4.4107e-09|  7.6103e-01|  5.0000e-01|  5.0000e-01|  5.0000e-01|   -6.290307|   -6.426732|   -7.051814|   -6.546900|   -6.587307|   -8.824995|    1.758821|
|         203|  9.0908e+00|  4.4106e-09|  7.6103e-01|  5.0000e-01|  5.0000e-01|  5.0000e-01|   -6.290353|   -6.426725|   -7.051991|   -6.546959|   -6.587313|   -8.825438|    1.758817|
|         204|  9.0882e+00|  4.4106e-09|  7.6103e-01|  5.0000e-01|  5.0000e-01|  5.0000e-01|   -6.290404|   -6.426724|   -7.052170|   -6.547023|   -6.587323|   -8.825888|    1.758814|
|         205|  9.0879e+00|  4.4106e-09|  7.6103e-01|  5.0000e-01|  5.0000e-01|  5.0000e-01|   -6.290461|   -6.426728|   -7.052349|   -6.547091|   -6.587337|   -8.826348|    1.758810|
|         206|  9.0875e+00|  4.4105e-09|  7.6103e-01|  5.0000e-01|  5.0000e-01|  5.0000e-01|   -6.290523|   -6.426738|   -7.052529|   -6.547163|   -6.587354|   -8.826815|    1.758807|
|         207|  9.0866e+00|  4.4105e-09|  7.6103e-01|  5.0000e-01|  5.0000e-01|  5.0000e-01|   -6.290590|   -6.426753|   -7.052710|   -6.547240|   -6.587377|   -8.827291|    1.758803|
|         208|  9.0853e+00|  4.4104e-09|  7.6103e-01|  5.0000e-01|  5.0000e-01|  5.0000e-01|   -6.290663|   -6.426773|   -7.052892|   -6.547322|   -6.587403|   -8.827775|    1.758799|
|         209|  9.0844e+00|  4.4104e-09|  7.6103e-01|  5.0000e-01|  5.0000e-01|  5.0000e-01|   -6.290740|   -6.426799|   -7.053075|   -6.547407|   -6.587433|   -8.828268|    1.758796|
|         210|  9.0830e+00|  4.4103e-09|  7.6103e-01|  5.0000e-01|  5.0000e-01|  5.0000e-01|   -6.290823|   -6.426830|   -7.053258|   -6.547498|   -6.587468|   -8.828768|    1.758792|
|         211|  9.0802e+00|  4.4103e-09|  7.6103e-01|  5.0000e-01|  5.0000e-01|  5.0000e-01|   -6.290911|   -6.426867|   -7.053443|   -6.547593|   -6.587506|   -8.829278|    1.758789|
|         212|  9.0788e+00|  4.4103e-09|  7.6103e-01|  5.0000e-01|  5.0000e-01|  5.0000e-01|   -6.291005|   -6.426909|   -7.053627|   -6.547692|   -6.587549|   -8.829796|    1.758785|
|         213|  9.0775e+00|  4.4102e-09|  7.6103e-01|  5.0000e-01|  5.0000e-01|  5.0000e-01|   -6.291103|   -6.426956|   -7.053813|   -6.547796|   -6.587596|   -8.830322|    1.758782|
|         214|  9.0765e+00|  4.4102e-09|  7.6103e-01|  5.0000e-01|  5.0000e-01|  5.0000e-01|   -6.291207|   -6.427009|   -7.053999|   -6.547904|   -6.587646|   -8.830856|    1.758778|
|         215|  9.0749e+00|  4.4101e-09|  7.6103e-01|  5.0000e-01|  5.0000e-01|  5.0000e-01|   -6.291315|   -6.427067|   -7.054186|   -6.548017|   -6.587701|   -8.831400|    1.758774|
|         216|  9.0729e+00|  4.4101e-09|  7.6103e-01|  5.0000e-01|  5.0000e-01|  5.0000e-01|   -6.291429|   -6.427130|   -7.054374|   -6.548134|   -6.587760|   -8.831951|    1.758771|
|         217|  9.0719e+00|  4.4100e-09|  7.6103e-01|  5.0000e-01|  5.0000e-01|  5.0000e-01|   -6.291549|   -6.427199|   -7.054562|   -6.548256|   -6.587824|   -8.832512|    1.758767|
|         218|  9.0718e+00|  4.4100e-09|  7.6103e-01|  5.0000e-01|  5.0000e-01|  5.0000e-01|   -6.291673|   -6.427273|   -7.054752|   -6.548382|   -6.587891|   -8.833081|    1.758764|
|         219|  9.0723e+00|  4.4100e-09|  7.6103e-01|  5.0000e-01|  5.0000e-01|  5.0000e-01|   -6.291803|   -6.427353|   -7.054941|   -6.548513|   -6.587963|   -8.833658|    1.758760|
|         220|  9.0715e+00|  4.4099e-09|  7.6103e-01|  5.0000e-01|  5.0000e-01|  5.0000e-01|   -6.291937|   -6.427438|   -7.055132|   -6.548648|   -6.588038|   -8.834244|    1.758757|
|         221|  9.0708e+00|  4.4099e-09|  7.6103e-01|  5.0000e-01|  5.0000e-01|  5.0000e-01|   -6.292077|   -6.427528|   -7.055323|   -6.548787|   -6.588118|   -8.834839|    1.758753|
|         222|  9.0702e+00|  4.4098e-09|  7.6103e-01|  5.0000e-01|  5.0000e-01|  5.0000e-01|   -6.292222|   -6.427623|   -7.055515|   -6.548931|   -6.588201|   -8.835442|    1.758749|
|         223|  9.0686e+00|  4.4098e-09|  7.6103e-01|  5.0000e-01|  5.0000e-01|  5.0000e-01|   -6.292372|   -6.427724|   -7.055708|   -6.549079|   -6.588289|   -8.836054|    1.758746|
|         224|  9.0670e+00|  4.4097e-09|  7.6103e-01|  5.0000e-01|  5.0000e-01|  5.0000e-01|   -6.292527|   -6.427830|   -7.055902|   -6.549231|   -6.588380|   -8.836675|    1.758742|
|         225|  9.0656e+00|  4.4097e-09|  7.6103e-01|  5.0000e-01|  5.0000e-01|  5.0000e-01|   -6.292687|   -6.427941|   -7.056096|   -6.549388|   -6.588476|   -8.837305|    1.758739|
|         226|  9.0643e+00|  4.4097e-09|  7.6103e-01|  5.0000e-01|  5.0000e-01|  5.0000e-01|   -6.292853|   -6.428057|   -7.056291|   -6.549549|   -6.588576|   -8.837943|    1.758735|
|         227|  9.0633e+00|  4.4096e-09|  7.6103e-01|  5.0000e-01|  5.0000e-01|  5.0000e-01|   -6.293023|   -6.428179|   -7.056486|   -6.549715|   -6.588680|   -8.838590|    1.758732|
|         228|  9.0620e+00|  4.4096e-09|  7.6103e-01|  5.0000e-01|  5.0000e-01|  5.0000e-01|   -6.293198|   -6.428306|   -7.056683|   -6.549885|   -6.588788|   -8.839246|    1.758728|
|         229|  9.0605e+00|  4.4095e-09|  7.6103e-01|  5.0000e-01|  5.0000e-01|  5.0000e-01|   -6.293379|   -6.428439|   -7.056880|   -6.550059|   -6.588900|   -8.839910|    1.758725|
|         230|  9.0592e+00|  4.4095e-09|  7.6103e-01|  5.0000e-01|  5.0000e-01|  5.0000e-01|   -6.293565|   -6.428576|   -7.057077|   -6.550238|   -6.589016|   -8.840584|    1.758721|
|         231|  9.0572e+00|  4.4094e-09|  7.6103e-01|  5.0000e-01|  5.0000e-01|  5.0000e-01|   -6.293756|   -6.428719|   -7.057276|   -6.550422|   -6.589136|   -8.841266|    1.758718|
|         232|  9.0580e+00|  4.4094e-09|  7.6103e-01|  5.0000e-01|  5.0000e-01|  5.0000e-01|   -6.293952|   -6.428868|   -7.057475|   -6.550610|   -6.589261|   -8.841958|    1.758714|
|         233|  9.0578e+00|  4.4094e-09|  7.6103e-01|  5.0000e-01|  5.0000e-01|  5.0000e-01|   -6.294153|   -6.429021|   -7.057676|   -6.550802|   -6.589389|   -8.842658|    1.758710|
|         234|  9.0573e+00|  4.4093e-09|  7.6103e-01|  5.0000e-01|  5.0000e-01|  5.0000e-01|   -6.294359|   -6.429181|   -7.057876|   -6.550999|   -6.589522|   -8.843367|    1.758707|
|         235|  9.0565e+00|  4.4093e-09|  7.6103e-01|  5.0000e-01|  5.0000e-01|  5.0000e-01|   -6.294571|   -6.429345|   -7.058078|   -6.551200|   -6.589659|   -8.844085|    1.758703|
|         236|  9.0552e+00|  4.4092e-09|  7.6103e-01|  5.0000e-01|  5.0000e-01|  5.0000e-01|   -6.294788|   -6.429515|   -7.058280|   -6.551405|   -6.589800|   -8.844813|    1.758700|
|         237|  9.0550e+00|  4.4092e-09|  7.6103e-01|  5.0000e-01|  5.0000e-01|  5.0000e-01|   -6.295009|   -6.429690|   -7.058483|   -6.551616|   -6.589946|   -8.845549|    1.758696|
|         238|  9.0540e+00|  4.4092e-09|  7.6103e-01|  5.0000e-01|  5.0000e-01|  5.0000e-01|   -6.295236|   -6.429870|   -7.058687|   -6.551830|   -6.590095|   -8.846294|    1.758693|
|         239|  9.0523e+00|  4.4091e-09|  7.6103e-01|  5.0000e-01|  5.0000e-01|  5.0000e-01|   -6.295468|   -6.430056|   -7.058891|   -6.552049|   -6.590249|   -8.847049|    1.758689|
|         240|  9.0512e+00|  4.4091e-09|  7.6103e-01|  5.0000e-01|  5.0000e-01|  5.0000e-01|   -6.295706|   -6.430247|   -7.059096|   -6.552273|   -6.590407|   -8.847813|    1.758686|
|         241|  9.0500e+00|  4.4090e-09|  7.6103e-01|  5.0000e-01|  5.0000e-01|  5.0000e-01|   -6.295948|   -6.430444|   -7.059302|   -6.552501|   -6.590569|   -8.848586|    1.758682|
|         242|  9.0489e+00|  4.4090e-09|  7.6103e-01|  5.0000e-01|  5.0000e-01|  5.0000e-01|   -6.296196|   -6.430646|   -7.059508|   -6.552733|   -6.590736|   -8.849368|    1.758679|
|         243|  9.0471e+00|  4.4090e-09|  7.6103e-01|  5.0000e-01|  5.0000e-01|  5.0000e-01|   -6.296448|   -6.430853|   -7.059715|   -6.552970|   -6.590906|   -8.850159|    1.758675|
|         244|  9.0461e+00|  4.4089e-09|  7.6103e-01|  5.0000e-01|  5.0000e-01|  5.0000e-01|   -6.296706|   -6.431065|   -7.059923|   -6.553212|   -6.591081|   -8.850960|    1.758672|
|         245|  9.0472e+00|  4.4089e-09|  7.6103e-01|  5.0000e-01|  5.0000e-01|  5.0000e-01|   -6.296969|   -6.431283|   -7.060131|   -6.553457|   -6.591259|   -8.851770|    1.758669|
|         246|  9.0474e+00|  4.4088e-09|  7.6103e-01|  5.0000e-01|  5.0000e-01|  5.0000e-01|   -6.297237|   -6.431506|   -7.060340|   -6.553708|   -6.591442|   -8.852589|    1.758665|
|         247|  9.0469e+00|  4.4088e-09|  7.6103e-01|  5.0000e-01|  5.0000e-01|  5.0000e-01|   -6.297510|   -6.431734|   -7.060549|   -6.553962|   -6.591630|   -8.853418|    1.758662|
|         248|  9.0457e+00|  4.4088e-09|  7.6103e-01|  5.0000e-01|  5.0000e-01|  5.0000e-01|   -6.297788|   -6.431968|   -7.060760|   -6.554221|   -6.591821|   -8.854256|    1.758658|
|         249|  9.0449e+00|  4.4087e-09|  7.6103e-01|  5.0000e-01|  5.0000e-01|  5.0000e-01|   -6.298071|   -6.432207|   -7.060970|   -6.554485|   -6.592016|   -8.855103|    1.758655|
|         250|  9.0444e+00|  4.4087e-09|  7.6103e-01|  5.0000e-01|  5.0000e-01|  5.0000e-01|   -6.298359|   -6.432452|   -7.061182|   -6.554752|   -6.592216|   -8.855960|    1.758651|
|         251|  9.0430e+00|  4.4086e-09|  7.6103e-01|  5.0000e-01|  5.0000e-01|  5.0000e-01|   -6.298652|   -6.432701|   -7.061394|   -6.555025|   -6.592420|   -8.856827|    1.758648|
|         252|  9.0419e+00|  4.4086e-09|  7.6103e-01|  5.0000e-01|  5.0000e-01|  5.0000e-01|   -6.298950|   -6.432956|   -7.061606|   -6.555301|   -6.592628|   -8.857703|    1.758644|
|         253|  9.0409e+00|  4.4086e-09|  7.6103e-01|  5.0000e-01|  5.0000e-01|  5.0000e-01|   -6.299253|   -6.433216|   -7.061819|   -6.555582|   -6.592840|   -8.858589|    1.758641|
|         254|  9.0401e+00|  4.4085e-09|  7.6103e-01|  5.0000e-01|  5.0000e-01|  5.0000e-01|   -6.299562|   -6.433482|   -7.062033|   -6.555867|   -6.593056|   -8.859484|    1.758638|
|         255|  9.0385e+00|  4.4085e-09|  7.6103e-01|  5.0000e-01|  5.0000e-01|  5.0000e-01|   -6.299875|   -6.433752|   -7.062247|   -6.556157|   -6.593276|   -8.860389|    1.758634|
|         256|  9.0372e+00|  4.4084e-09|  7.6103e-01|  5.0000e-01|  5.0000e-01|  5.0000e-01|   -6.300193|   -6.434028|   -7.062462|   -6.556451|   -6.593501|   -8.861304|    1.758631|
|         257|  9.0353e+00|  4.4084e-09|  7.6103e-01|  5.0000e-01|  5.0000e-01|  5.0000e-01|   -6.300517|   -6.434310|   -7.062677|   -6.556749|   -6.593730|   -8.862228|    1.758627|
|         258|  9.0348e+00|  4.4084e-09|  7.6103e-01|  5.0000e-01|  5.0000e-01|  5.0000e-01|   -6.300845|   -6.434596|   -7.062893|   -6.557052|   -6.593962|   -8.863163|    1.758624|
|         259|  9.0337e+00|  4.4083e-09|  7.6103e-01|  5.0000e-01|  5.0000e-01|  5.0000e-01|   -6.301178|   -6.434888|   -7.063109|   -6.557359|   -6.594199|   -8.864107|    1.758621|
|         260|  9.0326e+00|  4.4083e-09|  7.6103e-01|  5.0000e-01|  5.0000e-01|  5.0000e-01|   -6.301517|   -6.435185|   -7.063327|   -6.557670|   -6.594440|   -8.865060|    1.758617|
|         261|  9.0319e+00|  4.4082e-09|  7.6103e-01|  5.0000e-01|  5.0000e-01|  5.0000e-01|   -6.301860|   -6.435487|   -7.063544|   -6.557985|   -6.594685|   -8.866024|    1.758614|
|         262|  9.0309e+00|  4.4082e-09|  7.6103e-01|  5.0000e-01|  5.0000e-01|  5.0000e-01|   -6.302208|   -6.435794|   -7.063762|   -6.558305|   -6.594934|   -8.866998|    1.758610|
|         263|  9.0298e+00|  4.4082e-09|  7.6103e-01|  5.0000e-01|  5.0000e-01|  5.0000e-01|   -6.302561|   -6.436107|   -7.063981|   -6.558628|   -6.595187|   -8.867981|    1.758607|
|         264|  9.0289e+00|  4.4081e-09|  7.6103e-01|  5.0000e-01|  5.0000e-01|  5.0000e-01|   -6.302919|   -6.436424|   -7.064201|   -6.558957|   -6.595444|   -8.868975|    1.758604|
|         265|  9.0275e+00|  4.4081e-09|  7.6103e-01|  5.0000e-01|  5.0000e-01|  5.0000e-01|   -6.303282|   -6.436747|   -7.064421|   -6.559289|   -6.595706|   -8.869978|    1.758600|
|         266|  9.0257e+00|  4.4080e-09|  7.6103e-01|  5.0000e-01|  5.0000e-01|  5.0000e-01|   -6.303650|   -6.437075|   -7.064641|   -6.559625|   -6.595971|   -8.870992|    1.758597|
|         267|  9.0249e+00|  4.4080e-09|  7.6103e-01|  5.0000e-01|  5.0000e-01|  5.0000e-01|   -6.304023|   -6.437408|   -7.064862|   -6.559966|   -6.596240|   -8.872015|    1.758594|
|         268|  9.0238e+00|  4.4080e-09|  7.6103e-01|  5.0000e-01|  5.0000e-01|  5.0000e-01|   -6.304400|   -6.437746|   -7.065083|   -6.560310|   -6.596513|   -8.873049|    1.758591|
|         269|  9.0222e+00|  4.4079e-09|  7.6103e-01|  5.0000e-01|  5.0000e-01|  5.0000e-01|   -6.304783|   -6.438089|   -7.065305|   -6.560659|   -6.596790|   -8.874093|    1.758587|
|         270|  9.0209e+00|  4.4079e-09|  7.6103e-01|  5.0000e-01|  5.0000e-01|  5.0000e-01|   -6.305170|   -6.438438|   -7.065527|   -6.561012|   -6.597071|   -8.875147|    1.758584|
|         271|  9.0200e+00|  4.4079e-09|  7.6103e-01|  5.0000e-01|  5.0000e-01|  5.0000e-01|   -6.305562|   -6.438791|   -7.065750|   -6.561369|   -6.597356|   -8.876211|    1.758581|
|         272|  9.0184e+00|  4.4078e-09|  7.6103e-01|  5.0000e-01|  5.0000e-01|  5.0000e-01|   -6.305959|   -6.439150|   -7.065973|   -6.561731|   -6.597645|   -8.877285|    1.758577|
|         273|  9.0176e+00|  4.4078e-09|  7.6103e-01|  5.0000e-01|  5.0000e-01|  5.0000e-01|   -6.306361|   -6.439514|   -7.066196|   -6.562097|   -6.597938|   -8.878370|    1.758574|
|         274|  9.0165e+00|  4.4077e-09|  7.6103e-01|  5.0000e-01|  5.0000e-01|  5.0000e-01|   -6.306768|   -6.439883|   -7.066420|   -6.562466|   -6.598235|   -8.879465|    1.758571|
|         275|  9.0158e+00|  4.4077e-09|  7.6103e-01|  5.0000e-01|  5.0000e-01|  5.0000e-01|   -6.307180|   -6.440257|   -7.066645|   -6.562840|   -6.598536|   -8.880570|    1.758568|
|         276|  9.0148e+00|  4.4077e-09|  7.6103e-01|  5.0000e-01|  5.0000e-01|  5.0000e-01|   -6.307596|   -6.440636|   -7.066869|   -6.563218|   -6.598840|   -8.881685|    1.758564|
|         277|  9.0142e+00|  4.4076e-09|  7.6103e-01|  5.0000e-01|  5.0000e-01|  5.0000e-01|   -6.308017|   -6.441020|   -7.067094|   -6.563600|   -6.599149|   -8.882811|    1.758561|
|         278|  9.0129e+00|  4.4076e-09|  7.6103e-01|  5.0000e-01|  5.0000e-01|  5.0000e-01|   -6.308443|   -6.441409|   -7.067320|   -6.563986|   -6.599462|   -8.883947|    1.758558|
|         279|  9.0128e+00|  4.4076e-09|  7.6103e-01|  5.0000e-01|  5.0000e-01|  5.0000e-01|   -6.308874|   -6.441803|   -7.067545|   -6.564377|   -6.599778|   -8.885094|    1.758555|
|         280|  9.0112e+00|  4.4075e-09|  7.6103e-01|  5.0000e-01|  5.0000e-01|  5.0000e-01|   -6.309310|   -6.442202|   -7.067772|   -6.564771|   -6.600099|   -8.886251|    1.758551|
|         281|  9.0102e+00|  4.4075e-09|  7.6103e-01|  5.0000e-01|  5.0000e-01|  5.0000e-01|   -6.309750|   -6.442607|   -7.067998|   -6.565170|   -6.600424|   -8.887418|    1.758548|
|         282|  9.0095e+00|  4.4074e-09|  7.6103e-01|  5.0000e-01|  5.0000e-01|  5.0000e-01|   -6.310196|   -6.443016|   -7.068225|   -6.565573|   -6.600752|   -8.888596|    1.758545|
|         283|  9.0092e+00|  4.4074e-09|  7.6103e-01|  5.0000e-01|  5.0000e-01|  5.0000e-01|   -6.310646|   -6.443431|   -7.068452|   -6.565980|   -6.601085|   -8.889784|    1.758542|
|         284|  9.0079e+00|  4.4074e-09|  7.6103e-01|  5.0000e-01|  5.0000e-01|  5.0000e-01|   -6.311101|   -6.443850|   -7.068680|   -6.566391|   -6.601421|   -8.890983|    1.758539|
|         285|  9.0069e+00|  4.4073e-09|  7.6103e-01|  5.0000e-01|  5.0000e-01|  5.0000e-01|   -6.311561|   -6.444275|   -7.068908|   -6.566806|   -6.601761|   -8.892192|    1.758536|
|         286|  9.0056e+00|  4.4073e-09|  7.6103e-01|  5.0000e-01|  5.0000e-01|  5.0000e-01|   -6.312025|   -6.444705|   -7.069136|   -6.567225|   -6.602106|   -8.893412|    1.758532|
|         287|  9.0053e+00|  4.4073e-09|  7.6103e-01|  5.0000e-01|  5.0000e-01|  5.0000e-01|   -6.312494|   -6.445139|   -7.069365|   -6.567649|   -6.602454|   -8.894642|    1.758529|
|         288|  9.0047e+00|  4.4072e-09|  7.6103e-01|  5.0000e-01|  5.0000e-01|  5.0000e-01|   -6.312968|   -6.445579|   -7.069594|   -6.568076|   -6.602806|   -8.895883|    1.758526|
|         289|  9.0044e+00|  4.4072e-09|  7.6103e-01|  5.0000e-01|  5.0000e-01|  5.0000e-01|   -6.313447|   -6.446024|   -7.069823|   -6.568508|   -6.603162|   -8.897134|    1.758523|
|         290|  9.0031e+00|  4.4072e-09|  7.6103e-01|  5.0000e-01|  5.0000e-01|  5.0000e-01|   -6.313931|   -6.446474|   -7.070053|   -6.568943|   -6.603522|   -8.898396|    1.758520|
|         291|  9.0022e+00|  4.4071e-09|  7.6103e-01|  5.0000e-01|  5.0000e-01|  5.0000e-01|   -6.314419|   -6.446929|   -7.070283|   -6.569383|   -6.603886|   -8.899669|    1.758517|
|         292|  9.0022e+00|  4.4071e-09|  7.6103e-01|  5.0000e-01|  5.0000e-01|  5.0000e-01|   -6.314912|   -6.447389|   -7.070514|   -6.569827|   -6.604254|   -8.900952|    1.758514|
|         293|  9.0014e+00|  4.4070e-09|  7.6103e-01|  5.0000e-01|  5.0000e-01|  5.0000e-01|   -6.315410|   -6.447854|   -7.070745|   -6.570274|   -6.604626|   -8.902246|    1.758511|
|         294|  9.0001e+00|  4.4070e-09|  7.6103e-01|  5.0000e-01|  5.0000e-01|  5.0000e-01|   -6.315913|   -6.448324|   -7.070976|   -6.570726|   -6.605001|   -8.903551|    1.758508|
|         295|  8.9998e+00|  4.4070e-09|  7.6103e-01|  5.0000e-01|  5.0000e-01|  5.0000e-01|   -6.316420|   -6.448799|   -7.071208|   -6.571183|   -6.605381|   -8.904866|    1.758505|
|         296|  8.9996e+00|  4.4069e-09|  7.6103e-01|  5.0000e-01|  5.0000e-01|  5.0000e-01|   -6.316932|   -6.449280|   -7.071440|   -6.571643|   -6.605765|   -8.906192|    1.758502|
|         297|  8.9989e+00|  4.4069e-09|  7.6103e-01|  5.0000e-01|  5.0000e-01|  5.0000e-01|   -6.317449|   -6.449765|   -7.071672|   -6.572107|   -6.606153|   -8.907529|    1.758499|
|         298|  8.9980e+00|  4.4069e-09|  7.6103e-01|  5.0000e-01|  5.0000e-01|  5.0000e-01|   -6.317970|   -6.450255|   -7.071905|   -6.572575|   -6.606544|   -8.908876|    1.758496|
|         299|  8.9978e+00|  4.4068e-09|  7.6103e-01|  5.0000e-01|  5.0000e-01|  5.0000e-01|   -6.318497|   -6.450750|   -7.072139|   -6.573047|   -6.606940|   -8.910234|    1.758493|
|         300|  8.9975e+00|  4.4068e-09|  7.6103e-01|  5.0000e-01|  5.0000e-01|  5.0000e-01|   -6.319027|   -6.451251|   -7.072373|   -6.573523|   -6.607339|   -8.911603|    1.758490|
+-----------------------------------------------------------------------+
|        File Writing Summary       |              Filename             |
+-----------------------------------------------------------------------+
|SU2 binary restart                 |restart_flow.dat                   |
|Paraview                           |flow.vtu                           |
|Paraview surface                   |surface_flow.vtu                   |
+-----------------------------------------------------------------------+
+-------------------------------------------------------------------------------------------------------------------------------------------------------------------------------------+
|  Inner_Iter|   Time(sec)|      Min DT|      Max DT|     Min CFL|     Max CFL|     Avg CFL|    rms[Rho]|   rms[RhoU]|   rms[RhoV]|   rms[RhoW]|   rms[RhoE]|     rms[nu]|          CD|
+-------------------------------------------------------------------------------------------------------------------------------------------------------------------------------------+
|         301|  9.0714e+00|  4.4068e-09|  7.6103e-01|  5.0000e-01|  5.0000e-01|  5.0000e-01|   -6.319563|   -6.451756|   -7.072607|   -6.574004|   -6.607743|   -8.912983|    1.758487|
|         302|  9.0701e+00|  4.4067e-09|  7.6103e-01|  5.0000e-01|  5.0000e-01|  5.0000e-01|   -6.320103|   -6.452266|   -7.072842|   -6.574488|   -6.608150|   -8.914374|    1.758484|
|         303|  9.0693e+00|  4.4067e-09|  7.6103e-01|  5.0000e-01|  5.0000e-01|  5.0000e-01|   -6.320648|   -6.452782|   -7.073077|   -6.574976|   -6.608561|   -8.915775|    1.758481|
|         304|  9.0679e+00|  4.4067e-09|  7.6103e-01|  5.0000e-01|  5.0000e-01|  5.0000e-01|   -6.321198|   -6.453302|   -7.073313|   -6.575468|   -6.608976|   -8.917187|    1.758478|
|         305|  9.0659e+00|  4.4066e-09|  7.6103e-01|  5.0000e-01|  5.0000e-01|  5.0000e-01|   -6.321752|   -6.453827|   -7.073550|   -6.575965|   -6.609395|   -8.918610|    1.758475|
|         306|  9.0642e+00|  4.4066e-09|  7.6103e-01|  5.0000e-01|  5.0000e-01|  5.0000e-01|   -6.322311|   -6.454358|   -7.073787|   -6.576465|   -6.609818|   -8.920043|    1.758472|
|         307|  9.0624e+00|  4.4066e-09|  7.6103e-01|  5.0000e-01|  5.0000e-01|  5.0000e-01|   -6.322874|   -6.454893|   -7.074024|   -6.576969|   -6.610245|   -8.921488|    1.758469|
|         308|  9.0603e+00|  4.4065e-09|  7.6103e-01|  5.0000e-01|  5.0000e-01|  5.0000e-01|   -6.323442|   -6.455433|   -7.074261|   -6.577477|   -6.610675|   -8.922943|    1.758466|
|         309|  9.0589e+00|  4.4065e-09|  7.6103e-01|  5.0000e-01|  5.0000e-01|  5.0000e-01|   -6.324014|   -6.455978|   -7.074499|   -6.577989|   -6.611109|   -8.924409|    1.758463|
|         310|  9.0578e+00|  4.4064e-09|  7.6103e-01|  5.0000e-01|  5.0000e-01|  5.0000e-01|   -6.324591|   -6.456527|   -7.074737|   -6.578504|   -6.611547|   -8.925885|    1.758460|
|         311|  9.0554e+00|  4.4064e-09|  7.6103e-01|  5.0000e-01|  5.0000e-01|  5.0000e-01|   -6.325172|   -6.457082|   -7.074975|   -6.579024|   -6.611989|   -8.927373|    1.758457|
|         312|  9.0544e+00|  4.4064e-09|  7.6103e-01|  5.0000e-01|  5.0000e-01|  5.0000e-01|   -6.325758|   -6.457642|   -7.075214|   -6.579547|   -6.612434|   -8.928871|    1.758455|
|         313|  9.0533e+00|  4.4063e-09|  7.6103e-01|  5.0000e-01|  5.0000e-01|  5.0000e-01|   -6.326349|   -6.458206|   -7.075454|   -6.580074|   -6.612884|   -8.930381|    1.758452|
|         314|  9.0522e+00|  4.4063e-09|  7.6103e-01|  5.0000e-01|  5.0000e-01|  5.0000e-01|   -6.326943|   -6.458775|   -7.075693|   -6.580605|   -6.613337|   -8.931900|    1.758449|
|         315|  9.0506e+00|  4.4063e-09|  7.6103e-01|  5.0000e-01|  5.0000e-01|  5.0000e-01|   -6.327543|   -6.459350|   -7.075934|   -6.581140|   -6.613794|   -8.933431|    1.758446|
|         316|  9.0490e+00|  4.4062e-09|  7.6103e-01|  5.0000e-01|  5.0000e-01|  5.0000e-01|   -6.328147|   -6.459929|   -7.076174|   -6.581679|   -6.614254|   -8.934973|    1.758443|
|         317|  9.0474e+00|  4.4062e-09|  7.6103e-01|  5.0000e-01|  5.0000e-01|  5.0000e-01|   -6.328755|   -6.460513|   -7.076416|   -6.582221|   -6.614719|   -8.936525|    1.758441|
|         318|  9.0463e+00|  4.4062e-09|  7.6103e-01|  5.0000e-01|  5.0000e-01|  5.0000e-01|   -6.329368|   -6.461102|   -7.076658|   -6.582768|   -6.615188|   -8.938088|    1.758438|
|         319|  9.0450e+00|  4.4061e-09|  7.6103e-01|  5.0000e-01|  5.0000e-01|  5.0000e-01|   -6.329985|   -6.461695|   -7.076900|   -6.583318|   -6.615660|   -8.939662|    1.758435|
|         320|  9.0429e+00|  4.4061e-09|  7.6103e-01|  5.0000e-01|  5.0000e-01|  5.0000e-01|   -6.330607|   -6.462294|   -7.077143|   -6.583872|   -6.616136|   -8.941246|    1.758432|
|         321|  9.0414e+00|  4.4061e-09|  7.6103e-01|  5.0000e-01|  5.0000e-01|  5.0000e-01|   -6.331233|   -6.462897|   -7.077385|   -6.584430|   -6.616615|   -8.942841|    1.758430|
|         322|  9.0402e+00|  4.4060e-09|  7.6103e-01|  5.0000e-01|  5.0000e-01|  5.0000e-01|   -6.331863|   -6.463505|   -7.077628|   -6.584991|   -6.617098|   -8.944447|    1.758427|
|         323|  9.0385e+00|  4.4060e-09|  7.6103e-01|  5.0000e-01|  5.0000e-01|  5.0000e-01|   -6.332498|   -6.464117|   -7.077871|   -6.585556|   -6.617585|   -8.946063|    1.758424|
|         324|  9.0366e+00|  4.4060e-09|  7.6103e-01|  5.0000e-01|  5.0000e-01|  5.0000e-01|   -6.333137|   -6.464734|   -7.078115|   -6.586125|   -6.618075|   -8.947691|    1.758422|
|         325|  9.0350e+00|  4.4059e-09|  7.6103e-01|  5.0000e-01|  5.0000e-01|  5.0000e-01|   -6.333780|   -6.465356|   -7.078359|   -6.586697|   -6.618569|   -8.949328|    1.758419|
|         326|  9.0356e+00|  4.4059e-09|  7.6103e-01|  5.0000e-01|  5.0000e-01|  5.0000e-01|   -6.334427|   -6.465983|   -7.078604|   -6.587272|   -6.619066|   -8.950976|    1.758416|
|         327|  9.0352e+00|  4.4059e-09|  7.6103e-01|  5.0000e-01|  5.0000e-01|  5.0000e-01|   -6.335079|   -6.466614|   -7.078848|   -6.587852|   -6.619567|   -8.952635|    1.758414|
|         328|  9.0341e+00|  4.4058e-09|  7.6103e-01|  5.0000e-01|  5.0000e-01|  5.0000e-01|   -6.335735|   -6.467250|   -7.079094|   -6.588435|   -6.620072|   -8.954304|    1.758411|
|         329|  9.0329e+00|  4.4058e-09|  7.6103e-01|  5.0000e-01|  5.0000e-01|  5.0000e-01|   -6.336395|   -6.467890|   -7.079339|   -6.589021|   -6.620580|   -8.955984|    1.758408|
|         330|  9.0319e+00|  4.4058e-09|  7.6103e-01|  5.0000e-01|  5.0000e-01|  5.0000e-01|   -6.337059|   -6.468535|   -7.079585|   -6.589611|   -6.621091|   -8.957674|    1.758406|
|         331|  9.0307e+00|  4.4058e-09|  7.6103e-01|  5.0000e-01|  5.0000e-01|  5.0000e-01|   -6.337727|   -6.469185|   -7.079831|   -6.590204|   -6.621606|   -8.959374|    1.758403|
|         332|  9.0292e+00|  4.4057e-09|  7.6103e-01|  5.0000e-01|  5.0000e-01|  5.0000e-01|   -6.338400|   -6.469839|   -7.080077|   -6.590801|   -6.622125|   -8.961085|    1.758401|
|         333|  9.0272e+00|  4.4057e-09|  7.6103e-01|  5.0000e-01|  5.0000e-01|  5.0000e-01|   -6.339076|   -6.470497|   -7.080323|   -6.591402|   -6.622646|   -8.962806|    1.758398|
|         334|  9.0254e+00|  4.4057e-09|  7.6103e-01|  5.0000e-01|  5.0000e-01|  5.0000e-01|   -6.339756|   -6.471160|   -7.080570|   -6.592005|   -6.623172|   -8.964537|    1.758396|
|         335|  9.0242e+00|  4.4056e-09|  7.6103e-01|  5.0000e-01|  5.0000e-01|  5.0000e-01|   -6.340441|   -6.471827|   -7.080816|   -6.592612|   -6.623700|   -8.966279|    1.758393|
|         336|  9.0226e+00|  4.4056e-09|  7.6103e-01|  5.0000e-01|  5.0000e-01|  5.0000e-01|   -6.341129|   -6.472499|   -7.081063|   -6.593223|   -6.624232|   -8.968030|    1.758391|
|         337|  9.0217e+00|  4.4056e-09|  7.6103e-01|  5.0000e-01|  5.0000e-01|  5.0000e-01|   -6.341822|   -6.473175|   -7.081311|   -6.593837|   -6.624767|   -8.969791|    1.758388|
|         338|  9.0201e+00|  4.4055e-09|  7.6103e-01|  5.0000e-01|  5.0000e-01|  5.0000e-01|   -6.342518|   -6.473855|   -7.081558|   -6.594454|   -6.625306|   -8.971562|    1.758386|
|         339|  9.0193e+00|  4.4055e-09|  7.6103e-01|  5.0000e-01|  5.0000e-01|  5.0000e-01|   -6.343218|   -6.474540|   -7.081806|   -6.595074|   -6.625848|   -8.973344|    1.758383|
|         340|  9.0186e+00|  4.4055e-09|  7.6103e-01|  5.0000e-01|  5.0000e-01|  5.0000e-01|   -6.343922|   -6.475229|   -7.082054|   -6.595698|   -6.626393|   -8.975134|    1.758381|
|         341|  9.0183e+00|  4.4054e-09|  7.6103e-01|  5.0000e-01|  5.0000e-01|  5.0000e-01|   -6.344630|   -6.475923|   -7.082302|   -6.596325|   -6.626942|   -8.976935|    1.758378|
|         342|  9.0169e+00|  4.4054e-09|  7.6103e-01|  5.0000e-01|  5.0000e-01|  5.0000e-01|   -6.345342|   -6.476621|   -7.082551|   -6.596955|   -6.627493|   -8.978745|    1.758376|
|         343|  9.0154e+00|  4.4054e-09|  7.6103e-01|  5.0000e-01|  5.0000e-01|  5.0000e-01|   -6.346058|   -6.477323|   -7.082800|   -6.597588|   -6.628048|   -8.980565|    1.758374|
|         344|  9.0140e+00|  4.4053e-09|  7.6103e-01|  5.0000e-01|  5.0000e-01|  5.0000e-01|   -6.346777|   -6.478029|   -7.083049|   -6.598225|   -6.628607|   -8.982394|    1.758371|
|         345|  9.0129e+00|  4.4053e-09|  7.6103e-01|  5.0000e-01|  5.0000e-01|  5.0000e-01|   -6.347500|   -6.478739|   -7.083299|   -6.598865|   -6.629168|   -8.984232|    1.758369|
|         346|  9.0110e+00|  4.4053e-09|  7.6103e-01|  5.0000e-01|  5.0000e-01|  5.0000e-01|   -6.348227|   -6.479454|   -7.083548|   -6.599508|   -6.629732|   -8.986079|    1.758366|
|         347|  9.0098e+00|  4.4053e-09|  7.6103e-01|  5.0000e-01|  5.0000e-01|  5.0000e-01|   -6.348958|   -6.480173|   -7.083798|   -6.600154|   -6.630300|   -8.987936|    1.758364|
|         348|  9.0090e+00|  4.4052e-09|  7.6103e-01|  5.0000e-01|  5.0000e-01|  5.0000e-01|   -6.349693|   -6.480896|   -7.084048|   -6.600803|   -6.630871|   -8.989801|    1.758362|
|         349|  9.0075e+00|  4.4052e-09|  7.6103e-01|  5.0000e-01|  5.0000e-01|  5.0000e-01|   -6.350431|   -6.481623|   -7.084298|   -6.601456|   -6.631446|   -8.991676|    1.758359|
[...]
|        2511|  8.3475e+00|  4.3378e-09|  7.6103e-01|  5.0000e-01|  5.0000e-01|  5.0000e-01|   -6.434555|   -6.566311|   -7.108591|   -6.708050|   -6.720937|   -9.062897|    1.759406|
|        2512|  8.3472e+00|  4.3378e-09|  7.6103e-01|  5.0000e-01|  5.0000e-01|  5.0000e-01|   -6.434493|   -6.566136|   -7.108797|   -6.707979|   -6.720807|   -9.063384|    1.759401|
|        2513|  8.3469e+00|  4.3377e-09|  7.6103e-01|  5.0000e-01|  5.0000e-01|  5.0000e-01|   -6.434435|   -6.565967|   -7.109005|   -6.707914|   -6.720681|   -9.063867|    1.759395|
|        2514|  8.3466e+00|  4.3376e-09|  7.6103e-01|  5.0000e-01|  5.0000e-01|  5.0000e-01|   -6.434384|   -6.565803|   -7.109214|   -6.707854|   -6.720560|   -9.064347|    1.759390|
|        2515|  8.3464e+00|  4.3376e-09|  7.6103e-01|  5.0000e-01|  5.0000e-01|  5.0000e-01|   -6.434337|   -6.565645|   -7.109424|   -6.707799|   -6.720443|   -9.064825|    1.759384|
|        2516|  8.3461e+00|  4.3375e-09|  7.6103e-01|  5.0000e-01|  5.0000e-01|  5.0000e-01|   -6.434296|   -6.565492|   -7.109636|   -6.707749|   -6.720331|   -9.065299|    1.759378|
|        2517|  8.3459e+00|  4.3375e-09|  7.6103e-01|  5.0000e-01|  5.0000e-01|  5.0000e-01|   -6.434259|   -6.565344|   -7.109849|   -6.707705|   -6.720223|   -9.065771|    1.759373|
|        2518|  8.3456e+00|  4.3374e-09|  7.6103e-01|  5.0000e-01|  5.0000e-01|  5.0000e-01|   -6.434228|   -6.565202|   -7.110062|   -6.707665|   -6.720120|   -9.066239|    1.759367|
|        2519|  8.3454e+00|  4.3374e-09|  7.6103e-01|  5.0000e-01|  5.0000e-01|  5.0000e-01|   -6.434203|   -6.565065|   -7.110277|   -6.707631|   -6.720020|   -9.066705|    1.759361|
|        2520|  8.3453e+00|  4.3373e-09|  7.6103e-01|  5.0000e-01|  5.0000e-01|  5.0000e-01|   -6.434182|   -6.564934|   -7.110494|   -6.707602|   -6.719926|   -9.067168|    1.759356|
|        2521|  8.3451e+00|  4.3373e-09|  7.6103e-01|  5.0000e-01|  5.0000e-01|  5.0000e-01|   -6.434167|   -6.564808|   -7.110711|   -6.707579|   -6.719836|   -9.067628|    1.759350|
|        2522|  8.3448e+00|  4.3372e-09|  7.6103e-01|  5.0000e-01|  5.0000e-01|  5.0000e-01|   -6.434157|   -6.564687|   -7.110930|   -6.707560|   -6.719750|   -9.068085|    1.759344|
|        2523|  8.3445e+00|  4.3372e-09|  7.6103e-01|  5.0000e-01|  5.0000e-01|  5.0000e-01|   -6.434152|   -6.564572|   -7.111149|   -6.707547|   -6.719668|   -9.068539|    1.759339|
|        2524|  8.3443e+00|  4.3371e-09|  7.6103e-01|  5.0000e-01|  5.0000e-01|  5.0000e-01|   -6.434153|   -6.564463|   -7.111369|   -6.707539|   -6.719591|   -9.068991|    1.759333|
|        2525|  8.3441e+00|  4.3370e-09|  7.6103e-01|  5.0000e-01|  5.0000e-01|  5.0000e-01|   -6.434158|   -6.564358|   -7.111590|   -6.707535|   -6.719518|   -9.069439|    1.759327|
|        2526|  8.3438e+00|  4.3370e-09|  7.6103e-01|  5.0000e-01|  5.0000e-01|  5.0000e-01|   -6.434169|   -6.564260|   -7.111812|   -6.707537|   -6.719450|   -9.069885|    1.759321|
|        2527|  8.3435e+00|  4.3369e-09|  7.6103e-01|  5.0000e-01|  5.0000e-01|  5.0000e-01|   -6.434184|   -6.564166|   -7.112035|   -6.707544|   -6.719386|   -9.070328|    1.759315|
|        2528|  8.3433e+00|  4.3369e-09|  7.6103e-01|  5.0000e-01|  5.0000e-01|  5.0000e-01|   -6.434205|   -6.564078|   -7.112259|   -6.707557|   -6.719326|   -9.070769|    1.759310|
|        2529|  8.3430e+00|  4.3368e-09|  7.6103e-01|  5.0000e-01|  5.0000e-01|  5.0000e-01|   -6.434232|   -6.563996|   -7.112483|   -6.707574|   -6.719271|   -9.071206|    1.759304|
|        2530|  8.3427e+00|  4.3368e-09|  7.6103e-01|  5.0000e-01|  5.0000e-01|  5.0000e-01|   -6.434263|   -6.563919|   -7.112709|   -6.707597|   -6.719220|   -9.071641|    1.759298|
|        2531|  8.3424e+00|  4.3367e-09|  7.6103e-01|  5.0000e-01|  5.0000e-01|  5.0000e-01|   -6.434300|   -6.563847|   -7.112935|   -6.707624|   -6.719174|   -9.072073|    1.759292|
|        2532|  8.3421e+00|  4.3367e-09|  7.6103e-01|  5.0000e-01|  5.0000e-01|  5.0000e-01|   -6.434342|   -6.563781|   -7.113162|   -6.707657|   -6.719132|   -9.072503|    1.759286|
|        2533|  8.3418e+00|  4.3366e-09|  7.6103e-01|  5.0000e-01|  5.0000e-01|  5.0000e-01|   -6.434389|   -6.563720|   -7.113390|   -6.707696|   -6.719095|   -9.072929|    1.759280|
|        2534|  8.3415e+00|  4.3365e-09|  7.6103e-01|  5.0000e-01|  5.0000e-01|  5.0000e-01|   -6.434442|   -6.563665|   -7.113619|   -6.707739|   -6.719062|   -9.073353|    1.759274|
|        2535|  8.3413e+00|  4.3365e-09|  7.6103e-01|  5.0000e-01|  5.0000e-01|  5.0000e-01|   -6.434500|   -6.563616|   -7.113849|   -6.707788|   -6.719034|   -9.073775|    1.759269|
|        2536|  8.3410e+00|  4.3364e-09|  7.6103e-01|  5.0000e-01|  5.0000e-01|  5.0000e-01|   -6.434563|   -6.563572|   -7.114079|   -6.707842|   -6.719010|   -9.074194|    1.759263|
|        2537|  8.3407e+00|  4.3364e-09|  7.6103e-01|  5.0000e-01|  5.0000e-01|  5.0000e-01|   -6.434631|   -6.563533|   -7.114311|   -6.707901|   -6.718991|   -9.074610|    1.759257|
|        2538|  8.3404e+00|  4.3363e-09|  7.6103e-01|  5.0000e-01|  5.0000e-01|  5.0000e-01|   -6.434705|   -6.563501|   -7.114543|   -6.707965|   -6.718977|   -9.075024|    1.759251|
|        2539|  8.3402e+00|  4.3363e-09|  7.6103e-01|  5.0000e-01|  5.0000e-01|  5.0000e-01|   -6.434784|   -6.563473|   -7.114775|   -6.708034|   -6.718966|   -9.075435|    1.759245|
|        2540|  8.3402e+00|  4.3362e-09|  7.6103e-01|  5.0000e-01|  5.0000e-01|  5.0000e-01|   -6.434868|   -6.563452|   -7.115009|   -6.708109|   -6.718961|   -9.075844|    1.759239|
|        2541|  8.3400e+00|  4.3362e-09|  7.6103e-01|  5.0000e-01|  5.0000e-01|  5.0000e-01|   -6.434958|   -6.563435|   -7.115243|   -6.708189|   -6.718960|   -9.076250|    1.759233|
|        2542|  8.3397e+00|  4.3361e-09|  7.6103e-01|  5.0000e-01|  5.0000e-01|  5.0000e-01|   -6.435053|   -6.563425|   -7.115479|   -6.708274|   -6.718963|   -9.076654|    1.759227|
|        2543|  8.3395e+00|  4.3360e-09|  7.6103e-01|  5.0000e-01|  5.0000e-01|  5.0000e-01|   -6.435153|   -6.563420|   -7.115714|   -6.708364|   -6.718971|   -9.077055|    1.759221|
|        2544|  8.3392e+00|  4.3360e-09|  7.6103e-01|  5.0000e-01|  5.0000e-01|  5.0000e-01|   -6.435258|   -6.563420|   -7.115950|   -6.708459|   -6.718984|   -9.077454|    1.759215|
|        2545|  8.3389e+00|  4.3359e-09|  7.6103e-01|  5.0000e-01|  5.0000e-01|  5.0000e-01|   -6.435369|   -6.563426|   -7.116188|   -6.708560|   -6.719001|   -9.077850|    1.759209|
|        2546|  8.3387e+00|  4.3359e-09|  7.6103e-01|  5.0000e-01|  5.0000e-01|  5.0000e-01|   -6.435485|   -6.563438|   -7.116425|   -6.708666|   -6.719022|   -9.078244|    1.759203|
|        2547|  8.3385e+00|  4.3358e-09|  7.6103e-01|  5.0000e-01|  5.0000e-01|  5.0000e-01|   -6.435606|   -6.563455|   -7.116664|   -6.708776|   -6.719049|   -9.078636|    1.759197|
|        2548|  8.3382e+00|  4.3358e-09|  7.6103e-01|  5.0000e-01|  5.0000e-01|  5.0000e-01|   -6.435733|   -6.563478|   -7.116903|   -6.708892|   -6.719079|   -9.079025|    1.759191|
|        2549|  8.3379e+00|  4.3357e-09|  7.6103e-01|  5.0000e-01|  5.0000e-01|  5.0000e-01|   -6.435864|   -6.563507|   -7.117142|   -6.709013|   -6.719114|   -9.079412|    1.759184|
|        2550|  8.3376e+00|  4.3357e-09|  7.6103e-01|  5.0000e-01|  5.0000e-01|  5.0000e-01|   -6.436001|   -6.563540|   -7.117382|   -6.709139|   -6.719153|   -9.079796|    1.759178|
+-----------------------------------------------------------------------+
|        File Writing Summary       |              Filename             |
+-----------------------------------------------------------------------+
|SU2 binary restart                 |restart_flow.dat                   |
|Paraview                           |flow.vtu                           |
|Paraview surface                   |surface_flow.vtu                   |
+-----------------------------------------------------------------------+
+-------------------------------------------------------------------------------------------------------------------------------------------------------------------------------------+
|  Inner_Iter|   Time(sec)|      Min DT|      Max DT|     Min CFL|     Max CFL|     Avg CFL|    rms[Rho]|   rms[RhoU]|   rms[RhoV]|   rms[RhoW]|   rms[RhoE]|     rms[nu]|          CD|
+-------------------------------------------------------------------------------------------------------------------------------------------------------------------------------------+
|        2551|  8.3466e+00|  4.3356e-09|  7.6103e-01|  5.0000e-01|  5.0000e-01|  5.0000e-01|   -6.436143|   -6.563580|   -7.117623|   -6.709271|   -6.719197|   -9.080179|    1.759172|
|        2552|  8.3466e+00|  4.3355e-09|  7.6103e-01|  5.0000e-01|  5.0000e-01|  5.0000e-01|   -6.436291|   -6.563625|   -7.117864|   -6.709407|   -6.719246|   -9.080559|    1.759166|
|        2553|  8.3464e+00|  4.3355e-09|  7.6103e-01|  5.0000e-01|  5.0000e-01|  5.0000e-01|   -6.436444|   -6.563675|   -7.118106|   -6.709549|   -6.719299|   -9.080937|    1.759160|
|        2554|  8.3466e+00|  4.3354e-09|  7.6103e-01|  5.0000e-01|  5.0000e-01|  5.0000e-01|   -6.436602|   -6.563731|   -7.118348|   -6.709696|   -6.719357|   -9.081312|    1.759154|
|        2555|  8.3464e+00|  4.3354e-09|  7.6103e-01|  5.0000e-01|  5.0000e-01|  5.0000e-01|   -6.436765|   -6.563793|   -7.118590|   -6.709848|   -6.719419|   -9.081686|    1.759148|
|        2556|  8.3463e+00|  4.3353e-09|  7.6103e-01|  5.0000e-01|  5.0000e-01|  5.0000e-01|   -6.436934|   -6.563861|   -7.118834|   -6.710006|   -6.719487|   -9.082057|    1.759142|
|        2557|  8.3462e+00|  4.3353e-09|  7.6103e-01|  5.0000e-01|  5.0000e-01|  5.0000e-01|   -6.437109|   -6.563934|   -7.119077|   -6.710168|   -6.719558|   -9.082426|    1.759135|
|        2558|  8.3460e+00|  4.3352e-09|  7.6103e-01|  5.0000e-01|  5.0000e-01|  5.0000e-01|   -6.437288|   -6.564012|   -7.119321|   -6.710336|   -6.719634|   -9.082793|    1.759129|
|        2559|  8.3457e+00|  4.3352e-09|  7.6103e-01|  5.0000e-01|  5.0000e-01|  5.0000e-01|   -6.437473|   -6.564097|   -7.119565|   -6.710509|   -6.719715|   -9.083158|    1.759123|
|        2560|  8.3455e+00|  4.3351e-09|  7.6103e-01|  5.0000e-01|  5.0000e-01|  5.0000e-01|   -6.437662|   -6.564186|   -7.119809|   -6.710687|   -6.719800|   -9.083521|    1.759117|
|        2561|  8.3454e+00|  4.3351e-09|  7.6103e-01|  5.0000e-01|  5.0000e-01|  5.0000e-01|   -6.437858|   -6.564282|   -7.120054|   -6.710870|   -6.719889|   -9.083882|    1.759111|
|        2562|  8.3451e+00|  4.3350e-09|  7.6103e-01|  5.0000e-01|  5.0000e-01|  5.0000e-01|   -6.438058|   -6.564383|   -7.120298|   -6.711058|   -6.719983|   -9.084241|    1.759104|
|        2563|  8.3449e+00|  4.3349e-09|  7.6103e-01|  5.0000e-01|  5.0000e-01|  5.0000e-01|   -6.438263|   -6.564489|   -7.120543|   -6.711251|   -6.720082|   -9.084597|    1.759098|
|        2564|  8.3447e+00|  4.3349e-09|  7.6103e-01|  5.0000e-01|  5.0000e-01|  5.0000e-01|   -6.438474|   -6.564602|   -7.120788|   -6.711449|   -6.720184|   -9.084952|    1.759092|
|        2565|  8.3444e+00|  4.3348e-09|  7.6103e-01|  5.0000e-01|  5.0000e-01|  5.0000e-01|   -6.438690|   -6.564719|   -7.121033|   -6.711653|   -6.720292|   -9.085305|    1.759086|
|        2566|  8.3441e+00|  4.3348e-09|  7.6103e-01|  5.0000e-01|  5.0000e-01|  5.0000e-01|   -6.438911|   -6.564843|   -7.121279|   -6.711861|   -6.720404|   -9.085656|    1.759079|
|        2567|  8.3442e+00|  4.3347e-09|  7.6103e-01|  5.0000e-01|  5.0000e-01|  5.0000e-01|   -6.439137|   -6.564972|   -7.121525|   -6.712075|   -6.720520|   -9.086005|    1.759073|
|        2568|  8.3443e+00|  4.3347e-09|  7.6103e-01|  5.0000e-01|  5.0000e-01|  5.0000e-01|   -6.439369|   -6.565106|   -7.121770|   -6.712293|   -6.720641|   -9.086352|    1.759067|
|        2569|  8.3443e+00|  4.3346e-09|  7.6103e-01|  5.0000e-01|  5.0000e-01|  5.0000e-01|   -6.439605|   -6.565247|   -7.122016|   -6.712517|   -6.720766|   -9.086698|    1.759061|
|        2570|  8.3441e+00|  4.3346e-09|  7.6103e-01|  5.0000e-01|  5.0000e-01|  5.0000e-01|   -6.439847|   -6.565392|   -7.122262|   -6.712746|   -6.720896|   -9.087041|    1.759054|
|        2571|  8.3439e+00|  4.3345e-09|  7.6103e-01|  5.0000e-01|  5.0000e-01|  5.0000e-01|   -6.440094|   -6.565544|   -7.122508|   -6.712979|   -6.721030|   -9.087383|    1.759048|
|        2572|  8.3437e+00|  4.3344e-09|  7.6103e-01|  5.0000e-01|  5.0000e-01|  5.0000e-01|   -6.440346|   -6.565701|   -7.122754|   -6.713218|   -6.721169|   -9.087723|    1.759042|
|        2573|  8.3435e+00|  4.3344e-09|  7.6103e-01|  5.0000e-01|  5.0000e-01|  5.0000e-01|   -6.440604|   -6.565863|   -7.123001|   -6.713462|   -6.721313|   -9.088061|    1.759035|
|        2574|  8.3433e+00|  4.3343e-09|  7.6103e-01|  5.0000e-01|  5.0000e-01|  5.0000e-01|   -6.440866|   -6.566032|   -7.123247|   -6.713711|   -6.721460|   -9.088398|    1.759029|
|        2575|  8.3431e+00|  4.3343e-09|  7.6103e-01|  5.0000e-01|  5.0000e-01|  5.0000e-01|   -6.441134|   -6.566205|   -7.123493|   -6.713965|   -6.721613|   -9.088733|    1.759023|
|        2576|  8.3429e+00|  4.3342e-09|  7.6103e-01|  5.0000e-01|  5.0000e-01|  5.0000e-01|   -6.441407|   -6.566385|   -7.123739|   -6.714224|   -6.721769|   -9.089066|    1.759016|
|        2577|  8.3427e+00|  4.3342e-09|  7.6103e-01|  5.0000e-01|  5.0000e-01|  5.0000e-01|   -6.441685|   -6.566570|   -7.123985|   -6.714488|   -6.721931|   -9.089397|    1.759010|
|        2578|  8.3425e+00|  4.3341e-09|  7.6103e-01|  5.0000e-01|  5.0000e-01|  5.0000e-01|   -6.441969|   -6.566760|   -7.124231|   -6.714757|   -6.722096|   -9.089727|    1.759004|
|        2579|  8.3423e+00|  4.3341e-09|  7.6103e-01|  5.0000e-01|  5.0000e-01|  5.0000e-01|   -6.442257|   -6.566956|   -7.124477|   -6.715031|   -6.722266|   -9.090055|    1.758997|
|        2580|  8.3420e+00|  4.3340e-09|  7.6103e-01|  5.0000e-01|  5.0000e-01|  5.0000e-01|   -6.442550|   -6.567158|   -7.124723|   -6.715310|   -6.722441|   -9.090382|    1.758991|
|        2581|  8.3418e+00|  4.3339e-09|  7.6103e-01|  5.0000e-01|  5.0000e-01|  5.0000e-01|   -6.442849|   -6.567365|   -7.124968|   -6.715594|   -6.722620|   -9.090707|    1.758985|
|        2582|  8.3416e+00|  4.3339e-09|  7.6103e-01|  5.0000e-01|  5.0000e-01|  5.0000e-01|   -6.443153|   -6.567578|   -7.125213|   -6.715882|   -6.722803|   -9.091031|    1.758978|
|        2583|  8.3415e+00|  4.3338e-09|  7.6103e-01|  5.0000e-01|  5.0000e-01|  5.0000e-01|   -6.443461|   -6.567796|   -7.125458|   -6.716176|   -6.722991|   -9.091353|    1.758972|
|        2584|  8.3412e+00|  4.3338e-09|  7.6103e-01|  5.0000e-01|  5.0000e-01|  5.0000e-01|   -6.443775|   -6.568020|   -7.125703|   -6.716475|   -6.723183|   -9.091674|    1.758966|
|        2585|  8.3409e+00|  4.3337e-09|  7.6103e-01|  5.0000e-01|  5.0000e-01|  5.0000e-01|   -6.444094|   -6.568250|   -7.125947|   -6.716778|   -6.723379|   -9.091993|    1.758959|
|        2586|  8.3406e+00|  4.3337e-09|  7.6103e-01|  5.0000e-01|  5.0000e-01|  5.0000e-01|   -6.444419|   -6.568485|   -7.126191|   -6.717087|   -6.723580|   -9.092311|    1.758953|
|        2587|  8.3404e+00|  4.3336e-09|  7.6103e-01|  5.0000e-01|  5.0000e-01|  5.0000e-01|   -6.444748|   -6.568725|   -7.126435|   -6.717400|   -6.723786|   -9.092627|    1.758946|
|        2588|  8.3401e+00|  4.3336e-09|  7.6103e-01|  5.0000e-01|  5.0000e-01|  5.0000e-01|   -6.445082|   -6.568971|   -7.126679|   -6.717719|   -6.723996|   -9.092943|    1.758940|
|        2589|  8.3399e+00|  4.3335e-09|  7.6103e-01|  5.0000e-01|  5.0000e-01|  5.0000e-01|   -6.445422|   -6.569223|   -7.126922|   -6.718042|   -6.724210|   -9.093256|    1.758934|
|        2590|  8.3396e+00|  4.3334e-09|  7.6103e-01|  5.0000e-01|  5.0000e-01|  5.0000e-01|   -6.445766|   -6.569480|   -7.127165|   -6.718370|   -6.724428|   -9.093569|    1.758927|
|        2591|  8.3393e+00|  4.3334e-09|  7.6103e-01|  5.0000e-01|  5.0000e-01|  5.0000e-01|   -6.446115|   -6.569743|   -7.127407|   -6.718703|   -6.724651|   -9.093880|    1.758921|
|        2592|  8.3390e+00|  4.3333e-09|  7.6103e-01|  5.0000e-01|  5.0000e-01|  5.0000e-01|   -6.446470|   -6.570011|   -7.127649|   -6.719041|   -6.724878|   -9.094190|    1.758914|
|        2593|  8.3387e+00|  4.3333e-09|  7.6103e-01|  5.0000e-01|  5.0000e-01|  5.0000e-01|   -6.446829|   -6.570285|   -7.127890|   -6.719384|   -6.725110|   -9.094498|    1.758908|
|        2594|  8.3384e+00|  4.3332e-09|  7.6103e-01|  5.0000e-01|  5.0000e-01|  5.0000e-01|   -6.447194|   -6.570564|   -7.128131|   -6.719731|   -6.725346|   -9.094806|    1.758901|
|        2595|  8.3381e+00|  4.3332e-09|  7.6103e-01|  5.0000e-01|  5.0000e-01|  5.0000e-01|   -6.447564|   -6.570849|   -7.128372|   -6.720084|   -6.725586|   -9.095112|    1.758895|
|        2596|  8.3378e+00|  4.3331e-09|  7.6103e-01|  5.0000e-01|  5.0000e-01|  5.0000e-01|   -6.447938|   -6.571140|   -7.128612|   -6.720441|   -6.725831|   -9.095417|    1.758889|
|        2597|  8.3375e+00|  4.3331e-09|  7.6103e-01|  5.0000e-01|  5.0000e-01|  5.0000e-01|   -6.448318|   -6.571435|   -7.128851|   -6.720803|   -6.726080|   -9.095721|    1.758882|
|        2598|  8.3375e+00|  4.3330e-09|  7.6103e-01|  5.0000e-01|  5.0000e-01|  5.0000e-01|   -6.448702|   -6.571737|   -7.129090|   -6.721170|   -6.726333|   -9.096024|    1.758876|
|        2599|  8.3375e+00|  4.3330e-09|  7.6103e-01|  5.0000e-01|  5.0000e-01|  5.0000e-01|   -6.449092|   -6.572044|   -7.129328|   -6.721542|   -6.726591|   -9.096325|    1.758869|
|        2600|  8.3374e+00|  4.3329e-09|  7.6103e-01|  5.0000e-01|  5.0000e-01|  5.0000e-01|   -6.449487|   -6.572357|   -7.129566|   -6.721918|   -6.726853|   -9.096626|    1.758863|
|        2601|  8.3372e+00|  4.3328e-09|  7.6103e-01|  5.0000e-01|  5.0000e-01|  5.0000e-01|   -6.449886|   -6.572674|   -7.129802|   -6.722299|   -6.727119|   -9.096925|    1.758856|
|        2602|  8.3369e+00|  4.3328e-09|  7.6103e-01|  5.0000e-01|  5.0000e-01|  5.0000e-01|   -6.450290|   -6.572997|   -7.130038|   -6.722684|   -6.727389|   -9.097224|    1.758850|
|        2603|  8.3368e+00|  4.3327e-09|  7.6103e-01|  5.0000e-01|  5.0000e-01|  5.0000e-01|   -6.450699|   -6.573326|   -7.130273|   -6.723073|   -6.727663|   -9.097521|    1.758843|
|        2604|  8.3365e+00|  4.3327e-09|  7.6103e-01|  5.0000e-01|  5.0000e-01|  5.0000e-01|   -6.451113|   -6.573660|   -7.130508|   -6.723468|   -6.727942|   -9.097817|    1.758837|
|        2605|  8.3363e+00|  4.3326e-09|  7.6103e-01|  5.0000e-01|  5.0000e-01|  5.0000e-01|   -6.451532|   -6.574000|   -7.130742|   -6.723867|   -6.728225|   -9.098113|    1.758830|
|        2606|  8.3360e+00|  4.3326e-09|  7.6103e-01|  5.0000e-01|  5.0000e-01|  5.0000e-01|   -6.451956|   -6.574345|   -7.130974|   -6.724271|   -6.728512|   -9.098407|    1.758824|
|        2607|  8.3358e+00|  4.3325e-09|  7.6103e-01|  5.0000e-01|  5.0000e-01|  5.0000e-01|   -6.452385|   -6.574696|   -7.131207|   -6.724680|   -6.728804|   -9.098701|    1.758818|
|        2608|  8.3355e+00|  4.3325e-09|  7.6103e-01|  5.0000e-01|  5.0000e-01|  5.0000e-01|   -6.452819|   -6.575052|   -7.131439|   -6.725093|   -6.729100|   -9.098993|    1.758811|
|        2609|  8.3353e+00|  4.3324e-09|  7.6103e-01|  5.0000e-01|  5.0000e-01|  5.0000e-01|   -6.453258|   -6.575414|   -7.131670|   -6.725512|   -6.729400|   -9.099285|    1.758805|
|        2610|  8.3350e+00|  4.3323e-09|  7.6103e-01|  5.0000e-01|  5.0000e-01|  5.0000e-01|   -6.453702|   -6.575782|   -7.131900|   -6.725935|   -6.729705|   -9.099575|    1.758798|
|        2611|  8.3348e+00|  4.3323e-09|  7.6103e-01|  5.0000e-01|  5.0000e-01|  5.0000e-01|   -6.454151|   -6.576155|   -7.132129|   -6.726362|   -6.730014|   -9.099865|    1.758792|
|        2612|  8.3345e+00|  4.3322e-09|  7.6103e-01|  5.0000e-01|  5.0000e-01|  5.0000e-01|   -6.454604|   -6.576534|   -7.132358|   -6.726795|   -6.730327|   -9.100154|    1.758785|
