Nodes: tri[0359,0414]
Tasks: 128
NPN:   64

-------------------------------------------------------------------------
|    ___ _   _ ___                                                      |
|   / __| | | |_  )   Release 7.5.1 "Blackbird"                         |
|   \__ \ |_| |/ /                                                      |
|   |___/\___//___|   Suite (Computational Fluid Dynamics Code)         |
|                                                                       |
-------------------------------------------------------------------------
| SU2 Project Website: https://su2code.github.io                        |
|                                                                       |
| The SU2 Project is maintained by the SU2 Foundation                   |
| (http://su2foundation.org)                                            |
-------------------------------------------------------------------------
| Copyright 2012-2023, SU2 Contributors                                 |
|                                                                       |
| SU2 is free software; you can redistribute it and/or                  |
| modify it under the terms of the GNU Lesser General Public            |
| License as published by the Free Software Foundation; either          |
| version 2.1 of the License, or (at your option) any later version.    |
|                                                                       |
| SU2 is distributed in the hope that it will be useful,                |
| but WITHOUT ANY WARRANTY; without even the implied warranty of        |
| MERCHANTABILITY or FITNESS FOR A PARTICULAR PURPOSE. See the GNU      |
| Lesser General Public License for more details.                       |
|                                                                       |
| You should have received a copy of the GNU Lesser General Public      |
| License along with SU2. If not, see <http://www.gnu.org/licenses/>.   |
-------------------------------------------------------------------------

Parsing config file for zone 0

----------------- Physical Case Definition ( Zone 0 ) -------------------
Compressible RANS equations.
Turbulence model: Spalart-Allmaras-noft2
Hybrid RANS/LES: No Hybrid RANS/LES
Mach number: 6.
Angle of attack (AoA): 32 deg, and angle of sideslip (AoS): 0 deg.
Reynolds number: 6.86229e+08. Reference length 5.
Reading and writing binary SU2 native restart files.
Read flow solution from: restart_flow.dat.
Non-Dimensional simulation (V=1.0, Rho=1.0, T=1.0 at the farfield).
The reference area will be computed using y(2D) or z(3D) projection.
The semi-span will be computed using the max y(3D) value.
The reference length is 0.64607 m.
Reference origin for moment evaluation is (0.25, 0, 0).
Surface(s) where the force coefficients are evaluated: ORION_SURFACE.

Input mesh file name: fine.su2

--------------- Space Numerical Integration ( Zone 0 ) ------------------
Jameson-Schmidt-Turkel scheme (2nd order in space) for the flow inviscid terms.
JST viscous coefficients (2nd & 4th): 0.5, 0.02.
The method includes a grid stretching correction (p = 0.3).
Scalar upwind solver for the turbulence model.
First order integration in space.
Average of gradients with correction (viscous flow terms).
Average of gradients with correction (viscous turbulence terms).
Gradient for upwind reconstruction: Green-Gauss.
Gradient for viscous and source terms: Green-Gauss.

--------------- Time Numerical Integration  ( Zone 0 ) ------------------
Local time stepping (steady state simulation).
Euler implicit method for the flow equations.
FGMRES is used for solving the linear system.
Using a ILU(0) preconditioning.
Convergence criteria of the linear solver: 1e-06.
Max number of linear iterations: 100.
CFL adaptation. Factor down: 0.5, factor up: 1.1,
                lower limit: 0.05, upper limit: 0.5,
                acceptable linear residual: 0.001.
Courant-Friedrichs-Lewy number:     0.03
Euler implicit time integration for the turbulence model.

------------------ Convergence Criteria  ( Zone 0 ) ---------------------
Maximum number of solver subiterations: 999999.
Begin convergence monitoring at iteration 5.
Residual minimum value: 1e-8.
Cauchy series min. value: 1e-10.
Number of Cauchy elements: 100.
Begin windowed time average at iteration 0.

-------------------- Output Information ( Zone 0 ) ----------------------
File writing frequency: 
+------------------------------------+
|                     File| Frequency|
+------------------------------------+
|                  RESTART|       150|
|                 PARAVIEW|       150|
|         SURFACE_PARAVIEW|       150|
+------------------------------------+
Writing the convergence history file every 1 inner iterations.
Writing the screen convergence history every 1 inner iterations.
The tabular file format is CSV (.csv).
Convergence history file name: history.
Forces breakdown file name: forces_breakdown.dat.
Surface file name: surface_flow.
Volume file name: flow.
Restart file name: restart_flow.

------------- Config File Boundary Information ( Zone 0 ) ---------------
+-----------------------------------------------------------------------+
|                        Marker Type|                        Marker Name|
+-----------------------------------------------------------------------+
|                          Far-field|                           FARFIELD|
+-----------------------------------------------------------------------+
|                     Heat flux wall|                      ORION_SURFACE|
+-----------------------------------------------------------------------+

-------------------- Output Preprocessing ( Zone 0 ) --------------------

WARNING: SURFACE_PRESSURE_DROP can only be computed for at least 2 surfaces (outlet, inlet, ...)

Screen output fields: INNER_ITER, WALL_TIME, MIN_DELTA_TIME, MAX_DELTA_TIME, MIN_CFL, MAX_CFL, AVG_CFL, RMS_DENSITY, RMS_MOMENTUM-X, RMS_MOMENTUM-Y, RMS_MOMENTUM-Z, RMS_ENERGY, RMS_NU_TILDE, DRAG
History output group(s): ITER, RMS_RES
Convergence field(s): RMS_DENSITY
Warning: No (valid) fields chosen for time convergence monitoring. Time convergence monitoring inactive.
Volume output fields: MACH, PRESSURE, TEMPERATURE, DENSITY, HEAT_FLUX, Y_PLUS, COORDINATES, SOLUTION

------------------- Geometry Preprocessing ( Zone 0 ) -------------------
Three dimensional problem.
62211324 grid points before partitioning.
190879888 volume elements before partitioning.
2 surface markers.
4104 boundary elements in index 0 (Marker = FARFIELD).
1824836 boundary elements in index 1 (Marker = ORION_SURFACE).
Executing the partitioning functions.
Building the graph adjacency structure.
Calling ParMETIS... graph partitioning complete (4959327 edge cuts).
Distributing ParMETIS coloring.
Rebalancing vertices.
Rebalancing volume element connectivity.
Rebalancing markers and surface elements.
66952290 vertices including ghost points. 
197997438 interior elements including halo cells. 
103171259 tetrahedra.
94500655 prisms.
325524 pyramids.
Establishing MPI communication patterns.
Setting point connectivity.
Renumbering points (Reverse Cuthill McKee Ordering).
Recomputing point connectivity.
Setting element connectivity.
Checking the numerical grid orientation.
All volume elements are correctly orientend.
All surface elements are correctly orientend.
Identifying edges and vertices.
Setting the control volume structure.
Volume of the computational grid: 535693.
Searching for the closest normal neighbors to the surfaces.
Storing a mapping from global to local point index.
Compute the surface curvature.
Max K: 132.896. Mean K: 3.9104. Standard deviation K: 7.49569.
Checking for periodicity.
Computing mesh quality statistics for the dual control volumes.
+--------------------------------------------------------------+
|           Mesh Quality Metric|        Minimum|        Maximum|
+--------------------------------------------------------------+
|    Orthogonality Angle (deg.)|        53.0661|             90|
|     CV Face Area Aspect Ratio|        1.01143|        75298.5|
|           CV Sub-Volume Ratio|        1.00029|        45.0258|
+--------------------------------------------------------------+
Finding max control volume width.
Communicating number of neighbors.
Reference area = 11.531 m^2.
Semi-span length = 2.49999 m.
Wetted area = 57.9072 m^2.
Area projection in the x-plane = 19.6343 m^2, y-plane = 11.531 m^2, z-plane = 11.531 m^2.
Max. coordinate in the x-direction = 2.575 m, y-direction = 2.49999 m, z-direction = 2.49999 m.
Min. coordinate in the x-direction = -0.71 m, y-direction = -2.49999 m, z-direction = -2.5 m.
Computing wall distances.

-------------------- Solver Preprocessing ( Zone 0 ) --------------------
Viscous flow: Computing pressure using the ideal gas law
based on the free-stream temperature and a density computed
from the Reynolds number.
Force coefficients computed using free-stream values.

-- Models:
+------------------------------------------------------------------------------+
|          Viscosity Model|        Conductivity Model|              Fluid Model|
+------------------------------------------------------------------------------+
|               SUTHERLAND|          CONSTANT_PRANDTL|             STANDARD_AIR|
+------------------------------------------------------------------------------+
-- Fluid properties:
+------------------------------------------------------------------------------+
|                  Name|    Dim. value|    Ref. value|      Unit|Non-dim. value|
+------------------------------------------------------------------------------+
|        Ref. Viscosity|     1.716e-05|       2455.73|   N.s/m^2|   6.98773e-09|
|      Sutherland Temp.|        273.15|        288.15|         K|      0.947944|
|     Sutherland Const.|         110.4|        288.15|         K|      0.383134|
+------------------------------------------------------------------------------+
|        Prandtl (Lam.)|             -|             -|         -|          0.72|
|       Prandtl (Turb.)|             -|             -|         -|           0.9|
+------------------------------------------------------------------------------+
|          Gas Constant|       287.058|       14467.7|  N.m/kg.K|     0.0198413|
|      Spec. Heat Ratio|             -|             -|         -|           1.4|
+------------------------------------------------------------------------------+
-- Initial and free-stream conditions:
+------------------------------------------------------------------------------+
|                  Name|    Dim. value|    Ref. value|      Unit|Non-dim. value|
+------------------------------------------------------------------------------+
|       Static Pressure|       99485.6|   5.01407e+06|        Pa|     0.0198413|
|               Density|       1.20274|       1.20274|    kg/m^3|             1|
|           Temperature|        288.15|        288.15|         K|             1|
|          Total Energy|   2.29123e+06|   4.16887e+06|   m^2/s^2|      0.549603|
|            Velocity-X|       1731.53|       2041.78|       m/s|      0.848048|
|            Velocity-Y|             0|       2041.78|       m/s|             0|
|            Velocity-Z|       1081.98|       2041.78|       m/s|      0.529919|
|    Velocity Magnitude|       2041.78|       2041.78|       m/s|             1|
+------------------------------------------------------------------------------+
|             Viscosity|    1.7893e-05|       2455.73|   N.s/m^2|    7.2862e-09|
|          Conductivity|             -|   3.55289e+07|   W/m^2.K|             -|
|     Turb. Kin. Energy|       15633.3|   4.16887e+06|   m^2/s^2|       0.00375|
|     Spec. Dissipation|   1.05085e+08|       2041.78|       1/s|       51467.1|
+------------------------------------------------------------------------------+
|           Mach Number|             -|             -|         -|             6|
|       Reynolds Number|             -|             -|         -|   6.86229e+08|
+------------------------------------------------------------------------------+
Initialize Jacobian structure (Navier-Stokes). MG level: 0.
Initialize Jacobian structure (SA model).

------------------- Numerics Preprocessing ( Zone 0 ) -------------------

----------------- Integration Preprocessing ( Zone 0 ) ------------------

------------------- Iteration Preprocessing ( Zone 0 ) ------------------
Euler/Navier-Stokes/RANS fluid iteration.

------------------------------ Begin Solver -----------------------------

Simulation Run using the Single-zone Driver
WARNING: SU2 was not compiled for an AVX-capable architecture. Performance could be better,
         see https://su2code.github.io/docs_v7/Build-SU2-Linux-MacOS/#compiler-optimizations
+-------------------------------------------------------------------------------------------------------------------------------------------------------------------------------------+
|  Inner_Iter|   Time(sec)|      Min DT|      Max DT|     Min CFL|     Max CFL|     Avg CFL|    rms[Rho]|   rms[RhoU]|   rms[RhoV]|   rms[RhoW]|   rms[RhoE]|     rms[nu]|          CD|
+-------------------------------------------------------------------------------------------------------------------------------------------------------------------------------------+
|           0|  8.7322e+00|  2.6014e-10|  4.5662e-02|  5.0000e-02|  5.0000e-02|  5.0000e-02|   -6.436143|   -6.563580|   -7.117623|   -6.709271|   -6.719197|   -9.081101|    1.759178|
|           1|  7.2651e+00|  4.3356e-10|  7.6103e-02|  5.5000e-02|  5.5000e-02|  5.5000e-02|   -6.436184|   -6.563607|   -7.117694|   -6.709311|   -6.719253|   -9.081086|    1.759177|
|           2|  6.7293e+00|  4.7692e-10|  8.3713e-02|  6.0500e-02|  6.0500e-02|  6.0500e-02|   -6.436250|   -6.563652|   -7.117808|   -6.709377|   -6.719340|   -9.081116|    1.759177|
|           3|  6.4419e+00|  5.2461e-10|  9.2084e-02|  6.6550e-02|  6.6550e-02|  6.6550e-02|   -6.436321|   -6.563700|   -7.117931|   -6.709448|   -6.719435|   -9.081148|    1.759176|
|           4|  6.2634e+00|  5.7707e-10|  1.0129e-01|  7.3205e-02|  7.3205e-02|  7.3205e-02|   -6.436399|   -6.563753|   -7.118064|   -6.709525|   -6.719538|   -9.081184|    1.759175|
|           5|  6.1809e+00|  6.3477e-10|  1.1142e-01|  8.0526e-02|  8.0526e-02|  8.0526e-02|   -6.436483|   -6.563811|   -7.118206|   -6.709609|   -6.719650|   -9.081223|    1.759174|
|           6|  6.0962e+00|  6.9825e-10|  1.2256e-01|  8.8578e-02|  8.8578e-02|  8.8578e-02|   -6.436575|   -6.563875|   -7.118359|   -6.709700|   -6.719771|   -9.081266|    1.759173|
|           7|  6.0291e+00|  7.6807e-10|  1.3482e-01|  9.7436e-02|  9.7436e-02|  9.7436e-02|   -6.436675|   -6.563944|   -7.118523|   -6.709799|   -6.719901|   -9.081313|    1.759172|
|           8|  5.9776e+00|  8.4488e-10|  1.4830e-01|  1.0718e-01|  1.0718e-01|  1.0718e-01|   -6.436783|   -6.564019|   -7.118698|   -6.709907|   -6.720042|   -9.081364|    1.759171|
|           9|  5.9392e+00|  9.2936e-10|  1.6313e-01|  1.1790e-01|  1.1790e-01|  1.1790e-01|   -6.436900|   -6.564102|   -7.118884|   -6.710023|   -6.720193|   -9.081421|    1.759170|
|          10|  5.9123e+00|  1.0223e-09|  1.7945e-01|  1.2969e-01|  1.2969e-01|  1.2969e-01|   -6.437026|   -6.564191|   -7.119081|   -6.710148|   -6.720354|   -9.081483|    1.759168|
|          11|  5.9162e+00|  1.1245e-09|  1.9739e-01|  1.4266e-01|  1.4266e-01|  1.4266e-01|   -6.437163|   -6.564288|   -7.119289|   -6.710283|   -6.720527|   -9.081550|    1.759167|
|          12|  5.9127e+00|  1.2370e-09|  2.1713e-01|  1.5692e-01|  1.5692e-01|  1.5692e-01|   -6.437309|   -6.564393|   -7.119508|   -6.710428|   -6.720712|   -9.081625|    1.759165|
|          13|  5.9786e+00|  1.3607e-09|  2.3884e-01|  1.7261e-01|  1.7261e-01|  1.7261e-01|   -6.437467|   -6.564506|   -7.119736|   -6.710584|   -6.720908|   -9.081706|    1.759163|
|          14|  6.0307e+00|  1.4967e-09|  2.6273e-01|  1.8987e-01|  1.8987e-01|  1.8987e-01|   -6.437635|   -6.564628|   -7.119974|   -6.710750|   -6.721115|   -9.081795|    1.759161|
|          15|  6.0641e+00|  1.6464e-09|  2.8900e-01|  2.0886e-01|  2.0886e-01|  2.0886e-01|   -6.437815|   -6.564760|   -7.120220|   -6.710927|   -6.721333|   -9.081892|    1.759159|
|          16|  6.0836e+00|  1.8110e-09|  3.1790e-01|  2.2975e-01|  2.2975e-01|  2.2975e-01|   -6.438007|   -6.564900|   -7.120471|   -6.711116|   -6.721561|   -9.081999|    1.759156|
|          17|  6.1058e+00|  1.9921e-09|  3.4969e-01|  2.5272e-01|  2.5272e-01|  2.5272e-01|   -6.438209|   -6.565050|   -7.120726|   -6.711315|   -6.721797|   -9.082115|    1.759153|
|          18|  6.1327e+00|  2.1913e-09|  3.8466e-01|  2.7800e-01|  2.7800e-01|  2.7800e-01|   -6.438423|   -6.565209|   -7.120983|   -6.711524|   -6.722041|   -9.082242|    1.759150|
|          19|  6.1498e+00|  2.4104e-09|  4.2313e-01|  3.0580e-01|  3.0580e-01|  3.0580e-01|   -6.438647|   -6.565376|   -7.121237|   -6.711742|   -6.722289|   -9.082381|    1.759147|
|          20|  6.1689e+00|  2.6514e-09|  4.6544e-01|  3.3637e-01|  3.3637e-01|  3.3637e-01|   -6.438879|   -6.565550|   -7.121484|   -6.711968|   -6.722538|   -9.082532|    1.759143|
|          21|  6.1796e+00|  2.9166e-09|  5.1198e-01|  3.7001e-01|  3.7001e-01|  3.7001e-01|   -6.439118|   -6.565729|   -7.121720|   -6.712200|   -6.722782|   -9.082697|    1.759139|
|          22|  6.1921e+00|  3.2082e-09|  5.6318e-01|  4.0701e-01|  4.0701e-01|  4.0701e-01|   -6.439362|   -6.565910|   -7.121938|   -6.712434|   -6.723017|   -9.082877|    1.759134|
|          23|  6.2298e+00|  3.5290e-09|  6.1950e-01|  4.4772e-01|  4.4772e-01|  4.4772e-01|   -6.439605|   -6.566091|   -7.122132|   -6.712666|   -6.723234|   -9.083072|    1.759129|
|          24|  6.2647e+00|  3.8818e-09|  6.8145e-01|  4.9249e-01|  4.9249e-01|  4.9249e-01|   -6.439843|   -6.566264|   -7.122294|   -6.712891|   -6.723422|   -9.083285|    1.759124|
|          25|  6.2932e+00|  4.2700e-09|  7.4959e-01|  5.0000e-01|  5.0000e-01|  5.0000e-01|   -6.440070|   -6.566424|   -7.122414|   -6.713102|   -6.723570|   -9.083515|    1.759118|
|          26|  6.3199e+00|  4.3351e-09|  7.6103e-01|  5.0000e-01|  5.0000e-01|  5.0000e-01|   -6.440275|   -6.566561|   -7.122483|   -6.713290|   -6.723659|   -9.083853|    1.759111|
|          27|  6.3504e+00|  4.3350e-09|  7.6103e-01|  5.0000e-01|  5.0000e-01|  5.0000e-01|   -6.440474|   -6.566688|   -7.122553|   -6.713471|   -6.723732|   -9.084209|    1.759105|
|          28|  6.3789e+00|  4.3349e-09|  7.6103e-01|  5.0000e-01|  5.0000e-01|  5.0000e-01|   -6.440671|   -6.566810|   -7.122635|   -6.713649|   -6.723798|   -9.084564|    1.759099|
|          29|  6.4030e+00|  4.3349e-09|  7.6103e-01|  5.0000e-01|  5.0000e-01|  5.0000e-01|   -6.440865|   -6.566926|   -7.122729|   -6.713824|   -6.723856|   -9.084917|    1.759093|
|          30|  6.4371e+00|  4.3348e-09|  7.6103e-01|  5.0000e-01|  5.0000e-01|  5.0000e-01|   -6.441057|   -6.567037|   -7.122833|   -6.713997|   -6.723909|   -9.085268|    1.759086|
|          31|  6.4688e+00|  4.3348e-09|  7.6103e-01|  5.0000e-01|  5.0000e-01|  5.0000e-01|   -6.441246|   -6.567144|   -7.122949|   -6.714168|   -6.723957|   -9.085617|    1.759080|
|          32|  6.4949e+00|  4.3347e-09|  7.6103e-01|  5.0000e-01|  5.0000e-01|  5.0000e-01|   -6.441435|   -6.567247|   -7.123074|   -6.714338|   -6.723999|   -9.085964|    1.759074|
|          33|  6.5130e+00|  4.3347e-09|  7.6103e-01|  5.0000e-01|  5.0000e-01|  5.0000e-01|   -6.441622|   -6.567347|   -7.123208|   -6.714507|   -6.724037|   -9.086310|    1.759068|
|          34|  6.5292e+00|  4.3346e-09|  7.6103e-01|  5.0000e-01|  5.0000e-01|  5.0000e-01|   -6.441808|   -6.567444|   -7.123352|   -6.714675|   -6.724072|   -9.086654|    1.759061|
|          35|  6.5427e+00|  4.3346e-09|  7.6103e-01|  5.0000e-01|  5.0000e-01|  5.0000e-01|   -6.441994|   -6.567540|   -7.123503|   -6.714843|   -6.724104|   -9.086996|    1.759055|
|          36|  6.5536e+00|  4.3345e-09|  7.6103e-01|  5.0000e-01|  5.0000e-01|  5.0000e-01|   -6.442180|   -6.567635|   -7.123662|   -6.715011|   -6.724135|   -9.087337|    1.759049|
|          37|  6.5651e+00|  4.3344e-09|  7.6103e-01|  5.0000e-01|  5.0000e-01|  5.0000e-01|   -6.442367|   -6.567729|   -7.123828|   -6.715181|   -6.724164|   -9.087676|    1.759042|
|          38|  6.5760e+00|  4.3344e-09|  7.6103e-01|  5.0000e-01|  5.0000e-01|  5.0000e-01|   -6.442555|   -6.567824|   -7.124001|   -6.715352|   -6.724194|   -9.088013|    1.759036|
|          39|  6.5873e+00|  4.3343e-09|  7.6103e-01|  5.0000e-01|  5.0000e-01|  5.0000e-01|   -6.442745|   -6.567921|   -7.124181|   -6.715525|   -6.724225|   -9.088349|    1.759030|
|          40|  6.5993e+00|  4.3343e-09|  7.6103e-01|  5.0000e-01|  5.0000e-01|  5.0000e-01|   -6.442938|   -6.568019|   -7.124366|   -6.715701|   -6.724257|   -9.088683|    1.759024|
|          41|  6.6133e+00|  4.3342e-09|  7.6103e-01|  5.0000e-01|  5.0000e-01|  5.0000e-01|   -6.443133|   -6.568120|   -7.124557|   -6.715881|   -6.724291|   -9.089015|    1.759017|
|          42|  6.6239e+00|  4.3342e-09|  7.6103e-01|  5.0000e-01|  5.0000e-01|  5.0000e-01|   -6.443332|   -6.568224|   -7.124753|   -6.716064|   -6.724329|   -9.089346|    1.759011|
|          43|  6.6331e+00|  4.3341e-09|  7.6103e-01|  5.0000e-01|  5.0000e-01|  5.0000e-01|   -6.443534|   -6.568332|   -7.124953|   -6.716251|   -6.724370|   -9.089676|    1.759004|
|          44|  6.6412e+00|  4.3341e-09|  7.6103e-01|  5.0000e-01|  5.0000e-01|  5.0000e-01|   -6.443741|   -6.568444|   -7.125158|   -6.716443|   -6.724417|   -9.090003|    1.758998|
|          45|  6.6511e+00|  4.3340e-09|  7.6103e-01|  5.0000e-01|  5.0000e-01|  5.0000e-01|   -6.443953|   -6.568562|   -7.125367|   -6.716641|   -6.724468|   -9.090330|    1.758992|
|          46|  6.6629e+00|  4.3340e-09|  7.6103e-01|  5.0000e-01|  5.0000e-01|  5.0000e-01|   -6.444170|   -6.568685|   -7.125579|   -6.716844|   -6.724525|   -9.090655|    1.758985|
|          47|  6.6776e+00|  4.3339e-09|  7.6103e-01|  5.0000e-01|  5.0000e-01|  5.0000e-01|   -6.444392|   -6.568814|   -7.125794|   -6.717053|   -6.724588|   -9.090978|    1.758979|
|          48|  6.6951e+00|  4.3338e-09|  7.6103e-01|  5.0000e-01|  5.0000e-01|  5.0000e-01|   -6.444621|   -6.568949|   -7.126012|   -6.717268|   -6.724658|   -9.091300|    1.758973|
|          49|  6.7071e+00|  4.3338e-09|  7.6103e-01|  5.0000e-01|  5.0000e-01|  5.0000e-01|   -6.444856|   -6.569092|   -7.126233|   -6.717490|   -6.724735|   -9.091621|    1.758966|
|          50|  6.7144e+00|  4.3337e-09|  7.6103e-01|  5.0000e-01|  5.0000e-01|  5.0000e-01|   -6.445097|   -6.569242|   -7.126456|   -6.717719|   -6.724820|   -9.091940|    1.758960|
|          51|  6.7224e+00|  4.3337e-09|  7.6103e-01|  5.0000e-01|  5.0000e-01|  5.0000e-01|   -6.445345|   -6.569399|   -7.126682|   -6.717955|   -6.724913|   -9.092258|    1.758954|
|          52|  6.7327e+00|  4.3336e-09|  7.6103e-01|  5.0000e-01|  5.0000e-01|  5.0000e-01|   -6.445601|   -6.569564|   -7.126909|   -6.718199|   -6.725014|   -9.092575|    1.758947|
|          53|  6.7407e+00|  4.3336e-09|  7.6103e-01|  5.0000e-01|  5.0000e-01|  5.0000e-01|   -6.445864|   -6.569737|   -7.127138|   -6.718449|   -6.725123|   -9.092890|    1.758941|
|          54|  6.7450e+00|  4.3335e-09|  7.6103e-01|  5.0000e-01|  5.0000e-01|  5.0000e-01|   -6.446134|   -6.569918|   -7.127369|   -6.718708|   -6.725241|   -9.093204|    1.758934|
|          55|  6.7492e+00|  4.3335e-09|  7.6103e-01|  5.0000e-01|  5.0000e-01|  5.0000e-01|   -6.446412|   -6.570108|   -7.127600|   -6.718974|   -6.725368|   -9.093517|    1.758928|
|          56|  6.7564e+00|  4.3334e-09|  7.6103e-01|  5.0000e-01|  5.0000e-01|  5.0000e-01|   -6.446697|   -6.570306|   -7.127832|   -6.719248|   -6.725503|   -9.093828|    1.758921|
|          57|  6.7624e+00|  4.3333e-09|  7.6103e-01|  5.0000e-01|  5.0000e-01|  5.0000e-01|   -6.446990|   -6.570512|   -7.128066|   -6.719530|   -6.725648|   -9.094138|    1.758915|
|          58|  6.7678e+00|  4.3333e-09|  7.6103e-01|  5.0000e-01|  5.0000e-01|  5.0000e-01|   -6.447291|   -6.570727|   -7.128299|   -6.719819|   -6.725801|   -9.094448|    1.758909|
|          59|  6.7719e+00|  4.3332e-09|  7.6103e-01|  5.0000e-01|  5.0000e-01|  5.0000e-01|   -6.447600|   -6.570951|   -7.128534|   -6.720117|   -6.725963|   -9.094755|    1.758902|
|          60|  6.7749e+00|  4.3332e-09|  7.6103e-01|  5.0000e-01|  5.0000e-01|  5.0000e-01|   -6.447917|   -6.571183|   -7.128768|   -6.720422|   -6.726134|   -9.095062|    1.758896|
|          61|  6.7796e+00|  4.3331e-09|  7.6103e-01|  5.0000e-01|  5.0000e-01|  5.0000e-01|   -6.448242|   -6.571424|   -7.129003|   -6.720735|   -6.726313|   -9.095368|    1.758889|
|          62|  6.7866e+00|  4.3331e-09|  7.6103e-01|  5.0000e-01|  5.0000e-01|  5.0000e-01|   -6.448575|   -6.571674|   -7.129238|   -6.721055|   -6.726502|   -9.095672|    1.758883|
|          63|  6.7918e+00|  4.3330e-09|  7.6103e-01|  5.0000e-01|  5.0000e-01|  5.0000e-01|   -6.448916|   -6.571932|   -7.129473|   -6.721384|   -6.726699|   -9.095975|    1.758876|
|          64|  6.8117e+00|  4.3330e-09|  7.6103e-01|  5.0000e-01|  5.0000e-01|  5.0000e-01|   -6.449265|   -6.572198|   -7.129708|   -6.721719|   -6.726904|   -9.096278|    1.758870|
|          65|  6.8214e+00|  4.3329e-09|  7.6103e-01|  5.0000e-01|  5.0000e-01|  5.0000e-01|   -6.449621|   -6.572473|   -7.129943|   -6.722063|   -6.727118|   -9.096579|    1.758864|
|          66|  6.8278e+00|  4.3328e-09|  7.6103e-01|  5.0000e-01|  5.0000e-01|  5.0000e-01|   -6.449985|   -6.572756|   -7.130177|   -6.722412|   -6.727339|   -9.096879|    1.758857|
|          67|  6.8339e+00|  4.3328e-09|  7.6103e-01|  5.0000e-01|  5.0000e-01|  5.0000e-01|   -6.450356|   -6.573047|   -7.130410|   -6.722769|   -6.727568|   -9.097178|    1.758851|
|          68|  6.8380e+00|  4.3327e-09|  7.6103e-01|  5.0000e-01|  5.0000e-01|  5.0000e-01|   -6.450734|   -6.573346|   -7.130643|   -6.723133|   -6.727806|   -9.097476|    1.758844|
|          69|  6.8410e+00|  4.3327e-09|  7.6103e-01|  5.0000e-01|  5.0000e-01|  5.0000e-01|   -6.451121|   -6.573653|   -7.130876|   -6.723505|   -6.728050|   -9.097773|    1.758838|
|          70|  6.8436e+00|  4.3326e-09|  7.6103e-01|  5.0000e-01|  5.0000e-01|  5.0000e-01|   -6.451514|   -6.573968|   -7.131107|   -6.723883|   -6.728303|   -9.098069|    1.758831|
|          71|  6.8469e+00|  4.3326e-09|  7.6103e-01|  5.0000e-01|  5.0000e-01|  5.0000e-01|   -6.451915|   -6.574291|   -7.131339|   -6.724267|   -6.728563|   -9.098364|    1.758825|
|          72|  6.8501e+00|  4.3325e-09|  7.6103e-01|  5.0000e-01|  5.0000e-01|  5.0000e-01|   -6.452324|   -6.574622|   -7.131569|   -6.724659|   -6.728830|   -9.098658|    1.758818|
|          73|  6.8529e+00|  4.3325e-09|  7.6103e-01|  5.0000e-01|  5.0000e-01|  5.0000e-01|   -6.452739|   -6.574960|   -7.131799|   -6.725057|   -6.729104|   -9.098951|    1.758812|
|          74|  6.8572e+00|  4.3324e-09|  7.6103e-01|  5.0000e-01|  5.0000e-01|  5.0000e-01|   -6.453162|   -6.575306|   -7.132029|   -6.725462|   -6.729385|   -9.099244|    1.758805|
|          75|  6.8607e+00|  4.3323e-09|  7.6103e-01|  5.0000e-01|  5.0000e-01|  5.0000e-01|   -6.453592|   -6.575659|   -7.132258|   -6.725874|   -6.729673|   -9.099535|    1.758799|
|          76|  6.8634e+00|  4.3323e-09|  7.6103e-01|  5.0000e-01|  5.0000e-01|  5.0000e-01|   -6.454028|   -6.576020|   -7.132485|   -6.726291|   -6.729968|   -9.099825|    1.758792|
|          77|  6.8657e+00|  4.3322e-09|  7.6103e-01|  5.0000e-01|  5.0000e-01|  5.0000e-01|   -6.454471|   -6.576388|   -7.132712|   -6.726715|   -6.730269|   -9.100115|    1.758786|
|          78|  6.8677e+00|  4.3322e-09|  7.6103e-01|  5.0000e-01|  5.0000e-01|  5.0000e-01|   -6.454921|   -6.576763|   -7.132937|   -6.727145|   -6.730576|   -9.100404|    1.758779|
|          79|  6.8718e+00|  4.3321e-09|  7.6103e-01|  5.0000e-01|  5.0000e-01|  5.0000e-01|   -6.455377|   -6.577144|   -7.133162|   -6.727581|   -6.730889|   -9.100691|    1.758773|
|          80|  6.8803e+00|  4.3321e-09|  7.6103e-01|  5.0000e-01|  5.0000e-01|  5.0000e-01|   -6.455840|   -6.577533|   -7.133385|   -6.728022|   -6.731209|   -9.100978|    1.758766|
|          81|  6.8888e+00|  4.3320e-09|  7.6103e-01|  5.0000e-01|  5.0000e-01|  5.0000e-01|   -6.456309|   -6.577928|   -7.133608|   -6.728470|   -6.731534|   -9.101264|    1.758760|
|          82|  6.8942e+00|  4.3320e-09|  7.6103e-01|  5.0000e-01|  5.0000e-01|  5.0000e-01|   -6.456784|   -6.578331|   -7.133829|   -6.728923|   -6.731865|   -9.101550|    1.758753|
|          83|  6.8956e+00|  4.3319e-09|  7.6103e-01|  5.0000e-01|  5.0000e-01|  5.0000e-01|   -6.457265|   -6.578739|   -7.134049|   -6.729381|   -6.732201|   -9.101834|    1.758747|
|          84|  6.8968e+00|  4.3319e-09|  7.6103e-01|  5.0000e-01|  5.0000e-01|  5.0000e-01|   -6.457752|   -6.579155|   -7.134268|   -6.729845|   -6.732543|   -9.102118|    1.758740|
|          85|  6.8979e+00|  4.3318e-09|  7.6103e-01|  5.0000e-01|  5.0000e-01|  5.0000e-01|   -6.458245|   -6.579576|   -7.134486|   -6.730315|   -6.732890|   -9.102401|    1.758734|
|          86|  6.8986e+00|  4.3317e-09|  7.6103e-01|  5.0000e-01|  5.0000e-01|  5.0000e-01|   -6.458744|   -6.580004|   -7.134702|   -6.730789|   -6.733242|   -9.102683|    1.758727|
|          87|  6.9006e+00|  4.3317e-09|  7.6103e-01|  5.0000e-01|  5.0000e-01|  5.0000e-01|   -6.459248|   -6.580439|   -7.134917|   -6.731269|   -6.733599|   -9.102965|    1.758721|
|          88|  6.9027e+00|  4.3316e-09|  7.6103e-01|  5.0000e-01|  5.0000e-01|  5.0000e-01|   -6.459757|   -6.580879|   -7.135131|   -6.731753|   -6.733961|   -9.103246|    1.758714|
|          89|  6.9045e+00|  4.3316e-09|  7.6103e-01|  5.0000e-01|  5.0000e-01|  5.0000e-01|   -6.460272|   -6.581325|   -7.135343|   -6.732243|   -6.734328|   -9.103526|    1.758708|
|          90|  6.9048e+00|  4.3315e-09|  7.6103e-01|  5.0000e-01|  5.0000e-01|  5.0000e-01|   -6.460792|   -6.581778|   -7.135554|   -6.732737|   -6.734700|   -9.103805|    1.758701|
|          91|  6.9061e+00|  4.3315e-09|  7.6103e-01|  5.0000e-01|  5.0000e-01|  5.0000e-01|   -6.461317|   -6.582236|   -7.135763|   -6.733236|   -6.735076|   -9.104084|    1.758695|
|          92|  6.9064e+00|  4.3314e-09|  7.6103e-01|  5.0000e-01|  5.0000e-01|  5.0000e-01|   -6.461848|   -6.582700|   -7.135971|   -6.733740|   -6.735456|   -9.104362|    1.758688|
|          93|  6.9085e+00|  4.3314e-09|  7.6103e-01|  5.0000e-01|  5.0000e-01|  5.0000e-01|   -6.462383|   -6.583170|   -7.136177|   -6.734248|   -6.735841|   -9.104640|    1.758682|
|          94|  6.9102e+00|  4.3313e-09|  7.6103e-01|  5.0000e-01|  5.0000e-01|  5.0000e-01|   -6.462922|   -6.583645|   -7.136382|   -6.734760|   -6.736230|   -9.104916|    1.758675|
|          95|  6.9131e+00|  4.3312e-09|  7.6103e-01|  5.0000e-01|  5.0000e-01|  5.0000e-01|   -6.463467|   -6.584126|   -7.136586|   -6.735277|   -6.736623|   -9.105193|    1.758669|
|          96|  6.9146e+00|  4.3312e-09|  7.6103e-01|  5.0000e-01|  5.0000e-01|  5.0000e-01|   -6.464016|   -6.584613|   -7.136787|   -6.735798|   -6.737020|   -9.105468|    1.758662|
|          97|  6.9227e+00|  4.3311e-09|  7.6103e-01|  5.0000e-01|  5.0000e-01|  5.0000e-01|   -6.464570|   -6.585104|   -7.136988|   -6.736323|   -6.737421|   -9.105743|    1.758656|
|          98|  6.9305e+00|  4.3311e-09|  7.6103e-01|  5.0000e-01|  5.0000e-01|  5.0000e-01|   -6.465128|   -6.585602|   -7.137186|   -6.736853|   -6.737825|   -9.106017|    1.758649|
|          99|  6.9362e+00|  4.3310e-09|  7.6103e-01|  5.0000e-01|  5.0000e-01|  5.0000e-01|   -6.465690|   -6.586104|   -7.137383|   -6.737386|   -6.738234|   -9.106291|    1.758643|
|         100|  6.9380e+00|  4.3310e-09|  7.6103e-01|  5.0000e-01|  5.0000e-01|  5.0000e-01|   -6.466257|   -6.586612|   -7.137578|   -6.737923|   -6.738646|   -9.106564|    1.758637|
|         101|  6.9397e+00|  4.3309e-09|  7.6103e-01|  5.0000e-01|  5.0000e-01|  5.0000e-01|   -6.466829|   -6.587125|   -7.137772|   -6.738465|   -6.739062|   -9.106837|    1.758630|
|         102|  6.9427e+00|  4.3309e-09|  7.6103e-01|  5.0000e-01|  5.0000e-01|  5.0000e-01|   -6.467404|   -6.587643|   -7.137964|   -6.739010|   -6.739482|   -9.107109|    1.758624|
|         103|  6.9438e+00|  4.3308e-09|  7.6103e-01|  5.0000e-01|  5.0000e-01|  5.0000e-01|   -6.467983|   -6.588166|   -7.138153|   -6.739559|   -6.739905|   -9.107380|    1.758617|
|         104|  6.9462e+00|  4.3307e-09|  7.6103e-01|  5.0000e-01|  5.0000e-01|  5.0000e-01|   -6.468566|   -6.588694|   -7.138341|   -6.740111|   -6.740331|   -9.107651|    1.758611|
|         105|  6.9472e+00|  4.3307e-09|  7.6103e-01|  5.0000e-01|  5.0000e-01|  5.0000e-01|   -6.469153|   -6.589227|   -7.138528|   -6.740668|   -6.740761|   -9.107922|    1.758604|
|         106|  6.9499e+00|  4.3306e-09|  7.6103e-01|  5.0000e-01|  5.0000e-01|  5.0000e-01|   -6.469745|   -6.589765|   -7.138712|   -6.741227|   -6.741194|   -9.108192|    1.758598|
|         107|  6.9500e+00|  4.3306e-09|  7.6103e-01|  5.0000e-01|  5.0000e-01|  5.0000e-01|   -6.470339|   -6.590308|   -7.138895|   -6.741791|   -6.741630|   -9.108461|    1.758591|
|         108|  6.9513e+00|  4.3305e-09|  7.6103e-01|  5.0000e-01|  5.0000e-01|  5.0000e-01|   -6.470938|   -6.590855|   -7.139076|   -6.742358|   -6.742070|   -9.108730|    1.758585|
|         109|  6.9526e+00|  4.3305e-09|  7.6103e-01|  5.0000e-01|  5.0000e-01|  5.0000e-01|   -6.471541|   -6.591408|   -7.139255|   -6.742928|   -6.742513|   -9.108998|    1.758578|
|         110|  6.9526e+00|  4.3304e-09|  7.6103e-01|  5.0000e-01|  5.0000e-01|  5.0000e-01|   -6.472147|   -6.591966|   -7.139432|   -6.743502|   -6.742959|   -9.109266|    1.758572|
|         111|  6.9530e+00|  4.3304e-09|  7.6103e-01|  5.0000e-01|  5.0000e-01|  5.0000e-01|   -6.472757|   -6.592528|   -7.139608|   -6.744080|   -6.743408|   -9.109533|    1.758565|
|         112|  6.9545e+00|  4.3303e-09|  7.6103e-01|  5.0000e-01|  5.0000e-01|  5.0000e-01|   -6.473371|   -6.593096|   -7.139781|   -6.744661|   -6.743861|   -9.109800|    1.758559|
|         113|  6.9572e+00|  4.3303e-09|  7.6103e-01|  5.0000e-01|  5.0000e-01|  5.0000e-01|   -6.473988|   -6.593668|   -7.139953|   -6.745245|   -6.744316|   -9.110066|    1.758552|
|         114|  6.9656e+00|  4.3302e-09|  7.6103e-01|  5.0000e-01|  5.0000e-01|  5.0000e-01|   -6.474609|   -6.594244|   -7.140122|   -6.745833|   -6.744775|   -9.110332|    1.758546|
|         115|  6.9706e+00|  4.3301e-09|  7.6103e-01|  5.0000e-01|  5.0000e-01|  5.0000e-01|   -6.475234|   -6.594826|   -7.140290|   -6.746424|   -6.745237|   -9.110597|    1.758540|
|         116|  6.9726e+00|  4.3301e-09|  7.6103e-01|  5.0000e-01|  5.0000e-01|  5.0000e-01|   -6.475862|   -6.595412|   -7.140455|   -6.747018|   -6.745702|   -9.110862|    1.758533|
|         117|  6.9739e+00|  4.3300e-09|  7.6103e-01|  5.0000e-01|  5.0000e-01|  5.0000e-01|   -6.476494|   -6.596003|   -7.140619|   -6.747615|   -6.746170|   -9.111126|    1.758527|
|         118|  6.9760e+00|  4.3300e-09|  7.6103e-01|  5.0000e-01|  5.0000e-01|  5.0000e-01|   -6.477130|   -6.596599|   -7.140781|   -6.748216|   -6.746642|   -9.111390|    1.758520|
|         119|  6.9778e+00|  4.3299e-09|  7.6103e-01|  5.0000e-01|  5.0000e-01|  5.0000e-01|   -6.477769|   -6.597199|   -7.140941|   -6.748821|   -6.747116|   -9.111653|    1.758514|
|         120|  6.9783e+00|  4.3299e-09|  7.6103e-01|  5.0000e-01|  5.0000e-01|  5.0000e-01|   -6.478411|   -6.597804|   -7.141099|   -6.749428|   -6.747594|   -9.111916|    1.758507|
|         121|  6.9785e+00|  4.3298e-09|  7.6103e-01|  5.0000e-01|  5.0000e-01|  5.0000e-01|   -6.479058|   -6.598414|   -7.141256|   -6.750039|   -6.748075|   -9.112178|    1.758501|
|         122|  6.9794e+00|  4.3298e-09|  7.6103e-01|  5.0000e-01|  5.0000e-01|  5.0000e-01|   -6.479707|   -6.599028|   -7.141411|   -6.750653|   -6.748559|   -9.112440|    1.758495|
|         123|  6.9800e+00|  4.3297e-09|  7.6103e-01|  5.0000e-01|  5.0000e-01|  5.0000e-01|   -6.480361|   -6.599647|   -7.141563|   -6.751270|   -6.749046|   -9.112701|    1.758488|
|         124|  6.9802e+00|  4.3296e-09|  7.6103e-01|  5.0000e-01|  5.0000e-01|  5.0000e-01|   -6.481017|   -6.600271|   -7.141714|   -6.751890|   -6.749536|   -9.112962|    1.758482|
|         125|  6.9810e+00|  4.3296e-09|  7.6103e-01|  5.0000e-01|  5.0000e-01|  5.0000e-01|   -6.481677|   -6.600899|   -7.141863|   -6.752513|   -6.750029|   -9.113222|    1.758475|
|         126|  6.9805e+00|  4.3295e-09|  7.6103e-01|  5.0000e-01|  5.0000e-01|  5.0000e-01|   -6.482341|   -6.601532|   -7.142010|   -6.753139|   -6.750526|   -9.113481|    1.758469|
|         127|  6.9814e+00|  4.3295e-09|  7.6103e-01|  5.0000e-01|  5.0000e-01|  5.0000e-01|   -6.483008|   -6.602169|   -7.142155|   -6.753769|   -6.751025|   -9.113741|    1.758463|
|         128|  6.9832e+00|  4.3294e-09|  7.6103e-01|  5.0000e-01|  5.0000e-01|  5.0000e-01|   -6.483678|   -6.602811|   -7.142299|   -6.754401|   -6.751528|   -9.113999|    1.758456|
|         129|  6.9842e+00|  4.3294e-09|  7.6103e-01|  5.0000e-01|  5.0000e-01|  5.0000e-01|   -6.484352|   -6.603458|   -7.142440|   -6.755037|   -6.752033|   -9.114257|    1.758450|
|         130|  6.9880e+00|  4.3293e-09|  7.6103e-01|  5.0000e-01|  5.0000e-01|  5.0000e-01|   -6.485029|   -6.604109|   -7.142580|   -6.755675|   -6.752542|   -9.114515|    1.758444|
|         131|  6.9913e+00|  4.3293e-09|  7.6103e-01|  5.0000e-01|  5.0000e-01|  5.0000e-01|   -6.485709|   -6.604764|   -7.142717|   -6.756317|   -6.753054|   -9.114772|    1.758437|
|         132|  6.9938e+00|  4.3292e-09|  7.6103e-01|  5.0000e-01|  5.0000e-01|  5.0000e-01|   -6.486392|   -6.605424|   -7.142852|   -6.756961|   -6.753568|   -9.115028|    1.758431|
|         133|  6.9955e+00|  4.3291e-09|  7.6103e-01|  5.0000e-01|  5.0000e-01|  5.0000e-01|   -6.487078|   -6.606088|   -7.142984|   -6.757608|   -6.754085|   -9.115284|    1.758425|
|         134|  6.9967e+00|  4.3291e-09|  7.6103e-01|  5.0000e-01|  5.0000e-01|  5.0000e-01|   -6.487768|   -6.606756|   -7.143115|   -6.758257|   -6.754606|   -9.115539|    1.758418|
|         135|  6.9982e+00|  4.3290e-09|  7.6103e-01|  5.0000e-01|  5.0000e-01|  5.0000e-01|   -6.488460|   -6.607429|   -7.143244|   -6.758909|   -6.755129|   -9.115794|    1.758412|
|         136|  6.9972e+00|  4.3290e-09|  7.6103e-01|  5.0000e-01|  5.0000e-01|  5.0000e-01|   -6.489156|   -6.608106|   -7.143370|   -6.759564|   -6.755655|   -9.116048|    1.758406|
|         137|  6.9981e+00|  4.3289e-09|  7.6103e-01|  5.0000e-01|  5.0000e-01|  5.0000e-01|   -6.489855|   -6.608787|   -7.143494|   -6.760222|   -6.756183|   -9.116301|    1.758399|
|         138|  6.9984e+00|  4.3289e-09|  7.6103e-01|  5.0000e-01|  5.0000e-01|  5.0000e-01|   -6.490556|   -6.609473|   -7.143616|   -6.760881|   -6.756715|   -9.116554|    1.758393|
|         139|  6.9983e+00|  4.3288e-09|  7.6103e-01|  5.0000e-01|  5.0000e-01|  5.0000e-01|   -6.491260|   -6.610163|   -7.143735|   -6.761544|   -6.757249|   -9.116806|    1.758387|
|         140|  6.9992e+00|  4.3288e-09|  7.6103e-01|  5.0000e-01|  5.0000e-01|  5.0000e-01|   -6.491967|   -6.610856|   -7.143852|   -6.762209|   -6.757785|   -9.117057|    1.758380|
|         141|  6.9985e+00|  4.3287e-09|  7.6103e-01|  5.0000e-01|  5.0000e-01|  5.0000e-01|   -6.492677|   -6.611554|   -7.143967|   -6.762876|   -6.758325|   -9.117308|    1.758374|
|         142|  6.9985e+00|  4.3287e-09|  7.6103e-01|  5.0000e-01|  5.0000e-01|  5.0000e-01|   -6.493389|   -6.612256|   -7.144079|   -6.763545|   -6.758866|   -9.117558|    1.758368|
|         143|  6.9975e+00|  4.3286e-09|  7.6103e-01|  5.0000e-01|  5.0000e-01|  5.0000e-01|   -6.494104|   -6.612962|   -7.144189|   -6.764216|   -6.759411|   -9.117807|    1.758362|
|         144|  6.9976e+00|  4.3285e-09|  7.6103e-01|  5.0000e-01|  5.0000e-01|  5.0000e-01|   -6.494821|   -6.613672|   -7.144297|   -6.764890|   -6.759957|   -9.118056|    1.758355|
|         145|  6.9982e+00|  4.3285e-09|  7.6103e-01|  5.0000e-01|  5.0000e-01|  5.0000e-01|   -6.495541|   -6.614386|   -7.144402|   -6.765565|   -6.760506|   -9.118304|    1.758349|
|         146|  6.9976e+00|  4.3284e-09|  7.6103e-01|  5.0000e-01|  5.0000e-01|  5.0000e-01|   -6.496263|   -6.615104|   -7.144505|   -6.766243|   -6.761058|   -9.118551|    1.758343|
|         147|  7.0032e+00|  4.3284e-09|  7.6103e-01|  5.0000e-01|  5.0000e-01|  5.0000e-01|   -6.496987|   -6.615825|   -7.144605|   -6.766923|   -6.761612|   -9.118797|    1.758337|
|         148|  7.0078e+00|  4.3283e-09|  7.6103e-01|  5.0000e-01|  5.0000e-01|  5.0000e-01|   -6.497714|   -6.616551|   -7.144703|   -6.767604|   -6.762168|   -9.119042|    1.758330|
|         149|  7.0114e+00|  4.3283e-09|  7.6103e-01|  5.0000e-01|  5.0000e-01|  5.0000e-01|   -6.498443|   -6.617280|   -7.144799|   -6.768287|   -6.762726|   -9.119287|    1.758324|
|         150|  7.0130e+00|  4.3282e-09|  7.6103e-01|  5.0000e-01|  5.0000e-01|  5.0000e-01|   -6.499175|   -6.618013|   -7.144892|   -6.768972|   -6.763287|   -9.119531|    1.758318|
+-----------------------------------------------------------------------+
|        File Writing Summary       |              Filename             |
+-----------------------------------------------------------------------+
|SU2 binary restart                 |restart_flow.dat                   |
|Paraview                           |flow.vtu                           |
|Paraview surface                   |surface_flow.vtu                   |
+-----------------------------------------------------------------------+
+-------------------------------------------------------------------------------------------------------------------------------------------------------------------------------------+
|  Inner_Iter|   Time(sec)|      Min DT|      Max DT|     Min CFL|     Max CFL|     Avg CFL|    rms[Rho]|   rms[RhoU]|   rms[RhoV]|   rms[RhoW]|   rms[RhoE]|     rms[nu]|          CD|
+-------------------------------------------------------------------------------------------------------------------------------------------------------------------------------------+
|         151|  7.1746e+00|  4.3282e-09|  7.6103e-01|  5.0000e-01|  5.0000e-01|  5.0000e-01|   -6.499908|   -6.618750|   -7.144983|   -6.769659|   -6.763850|   -9.119774|    1.758312|
|         152|  7.1778e+00|  4.3281e-09|  7.6103e-01|  5.0000e-01|  5.0000e-01|  5.0000e-01|   -6.500644|   -6.619491|   -7.145072|   -6.770348|   -6.764415|   -9.120016|    1.758306|
|         153|  7.1802e+00|  4.3280e-09|  7.6103e-01|  5.0000e-01|  5.0000e-01|  5.0000e-01|   -6.501382|   -6.620235|   -7.145158|   -6.771038|   -6.764982|   -9.120257|    1.758300|
|         154|  7.1844e+00|  4.3280e-09|  7.6103e-01|  5.0000e-01|  5.0000e-01|  5.0000e-01|   -6.502121|   -6.620982|   -7.145241|   -6.771730|   -6.765551|   -9.120497|    1.758293|
|         155|  7.1841e+00|  4.3279e-09|  7.6103e-01|  5.0000e-01|  5.0000e-01|  5.0000e-01|   -6.502863|   -6.621733|   -7.145322|   -6.772423|   -6.766123|   -9.120736|    1.758287|
|         156|  7.1844e+00|  4.3279e-09|  7.6103e-01|  5.0000e-01|  5.0000e-01|  5.0000e-01|   -6.503606|   -6.622488|   -7.145400|   -6.773118|   -6.766696|   -9.120974|    1.758281|
|         157|  7.1836e+00|  4.3278e-09|  7.6103e-01|  5.0000e-01|  5.0000e-01|  5.0000e-01|   -6.504351|   -6.623246|   -7.145476|   -6.773814|   -6.767271|   -9.121211|    1.758275|
|         158|  7.1836e+00|  4.3278e-09|  7.6103e-01|  5.0000e-01|  5.0000e-01|  5.0000e-01|   -6.505098|   -6.624008|   -7.145549|   -6.774511|   -6.767848|   -9.121447|    1.758269|
|         159|  7.1835e+00|  4.3277e-09|  7.6103e-01|  5.0000e-01|  5.0000e-01|  5.0000e-01|   -6.505846|   -6.624772|   -7.145620|   -6.775210|   -6.768427|   -9.121683|    1.758263|
|         160|  7.1830e+00|  4.3277e-09|  7.6103e-01|  5.0000e-01|  5.0000e-01|  5.0000e-01|   -6.506596|   -6.625540|   -7.145688|   -6.775909|   -6.769007|   -9.121917|    1.758257|
|         161|  7.1855e+00|  4.3276e-09|  7.6103e-01|  5.0000e-01|  5.0000e-01|  5.0000e-01|   -6.507347|   -6.626312|   -7.145754|   -6.776610|   -6.769590|   -9.122149|    1.758251|
|         162|  7.1884e+00|  4.3275e-09|  7.6103e-01|  5.0000e-01|  5.0000e-01|  5.0000e-01|   -6.508100|   -6.627086|   -7.145817|   -6.777311|   -6.770173|   -9.122381|    1.758245|
|         163|  7.1917e+00|  4.3275e-09|  7.6103e-01|  5.0000e-01|  5.0000e-01|  5.0000e-01|   -6.508854|   -6.627863|   -7.145877|   -6.778013|   -6.770759|   -9.122612|    1.758239|
|         164|  7.1957e+00|  4.3274e-09|  7.6103e-01|  5.0000e-01|  5.0000e-01|  5.0000e-01|   -6.509609|   -6.628644|   -7.145935|   -6.778716|   -6.771346|   -9.122841|    1.758232|
|         165|  7.1971e+00|  4.3274e-09|  7.6103e-01|  5.0000e-01|  5.0000e-01|  5.0000e-01|   -6.510366|   -6.629427|   -7.145990|   -6.779421|   -6.771934|   -9.123069|    1.758226|
|         166|  7.1969e+00|  4.3273e-09|  7.6103e-01|  5.0000e-01|  5.0000e-01|  5.0000e-01|   -6.511123|   -6.630214|   -7.146043|   -6.780125|   -6.772524|   -9.123296|    1.758220|
|         167|  7.1965e+00|  4.3273e-09|  7.6103e-01|  5.0000e-01|  5.0000e-01|  5.0000e-01|   -6.511882|   -6.631003|   -7.146093|   -6.780830|   -6.773115|   -9.123522|    1.758214|
|         168|  7.1975e+00|  4.3272e-09|  7.6103e-01|  5.0000e-01|  5.0000e-01|  5.0000e-01|   -6.512641|   -6.631795|   -7.146141|   -6.781536|   -6.773707|   -9.123746|    1.758208|
|         169|  7.1984e+00|  4.3272e-09|  7.6103e-01|  5.0000e-01|  5.0000e-01|  5.0000e-01|   -6.513401|   -6.632589|   -7.146186|   -6.782241|   -6.774300|   -9.123969|    1.758202|
|         170|  7.1967e+00|  4.3271e-09|  7.6103e-01|  5.0000e-01|  5.0000e-01|  5.0000e-01|   -6.514162|   -6.633387|   -7.146229|   -6.782947|   -6.774895|   -9.124191|    1.758196|
|         171|  7.1959e+00|  4.3271e-09|  7.6103e-01|  5.0000e-01|  5.0000e-01|  5.0000e-01|   -6.514923|   -6.634186|   -7.146270|   -6.783653|   -6.775491|   -9.124411|    1.758190|
|         172|  7.1942e+00|  4.3270e-09|  7.6103e-01|  5.0000e-01|  5.0000e-01|  5.0000e-01|   -6.515686|   -6.634989|   -7.146308|   -6.784360|   -6.776088|   -9.124629|    1.758185|
|         173|  7.1926e+00|  4.3269e-09|  7.6103e-01|  5.0000e-01|  5.0000e-01|  5.0000e-01|   -6.516449|   -6.635794|   -7.146344|   -6.785067|   -6.776686|   -9.124847|    1.758179|
|         174|  7.1911e+00|  4.3269e-09|  7.6103e-01|  5.0000e-01|  5.0000e-01|  5.0000e-01|   -6.517212|   -6.636601|   -7.146377|   -6.785773|   -6.777285|   -9.125062|    1.758173|
|         175|  7.1898e+00|  4.3268e-09|  7.6103e-01|  5.0000e-01|  5.0000e-01|  5.0000e-01|   -6.517975|   -6.637411|   -7.146407|   -6.786480|   -6.777884|   -9.125276|    1.758167|
|         176|  7.1883e+00|  4.3268e-09|  7.6103e-01|  5.0000e-01|  5.0000e-01|  5.0000e-01|   -6.518739|   -6.638223|   -7.146435|   -6.787185|   -6.778484|   -9.125489|    1.758161|
|         177|  7.1882e+00|  4.3267e-09|  7.6103e-01|  5.0000e-01|  5.0000e-01|  5.0000e-01|   -6.519503|   -6.639036|   -7.146461|   -6.787891|   -6.779085|   -9.125700|    1.758155|
|         178|  7.1878e+00|  4.3267e-09|  7.6103e-01|  5.0000e-01|  5.0000e-01|  5.0000e-01|   -6.520267|   -6.639853|   -7.146483|   -6.788596|   -6.779687|   -9.125909|    1.758149|
|         179|  7.1887e+00|  4.3266e-09|  7.6103e-01|  5.0000e-01|  5.0000e-01|  5.0000e-01|   -6.521031|   -6.640671|   -7.146503|   -6.789300|   -6.780289|   -9.126117|    1.758143|
|         180|  7.1877e+00|  4.3266e-09|  7.6103e-01|  5.0000e-01|  5.0000e-01|  5.0000e-01|   -6.521795|   -6.641491|   -7.146521|   -6.790005|   -6.780892|   -9.126323|    1.758137|
|         181|  7.1871e+00|  4.3265e-09|  7.6103e-01|  5.0000e-01|  5.0000e-01|  5.0000e-01|   -6.522559|   -6.642313|   -7.146536|   -6.790708|   -6.781496|   -9.126527|    1.758132|
|         182|  7.1858e+00|  4.3264e-09|  7.6103e-01|  5.0000e-01|  5.0000e-01|  5.0000e-01|   -6.523322|   -6.643137|   -7.146548|   -6.791411|   -6.782099|   -9.126730|    1.758126|
|         183|  7.1836e+00|  4.3264e-09|  7.6103e-01|  5.0000e-01|  5.0000e-01|  5.0000e-01|   -6.524085|   -6.643963|   -7.146557|   -6.792113|   -6.782703|   -9.126930|    1.758120|
|         184|  7.1815e+00|  4.3263e-09|  7.6103e-01|  5.0000e-01|  5.0000e-01|  5.0000e-01|   -6.524848|   -6.644791|   -7.146564|   -6.792813|   -6.783308|   -9.127129|    1.758114|
|         185|  7.1803e+00|  4.3263e-09|  7.6103e-01|  5.0000e-01|  5.0000e-01|  5.0000e-01|   -6.525610|   -6.645620|   -7.146568|   -6.793513|   -6.783912|   -9.127325|    1.758108|
|         186|  7.1791e+00|  4.3262e-09|  7.6103e-01|  5.0000e-01|  5.0000e-01|  5.0000e-01|   -6.526372|   -6.646451|   -7.146569|   -6.794212|   -6.784517|   -9.127520|    1.758103|
|         187|  7.1778e+00|  4.3262e-09|  7.6103e-01|  5.0000e-01|  5.0000e-01|  5.0000e-01|   -6.527133|   -6.647284|   -7.146567|   -6.794910|   -6.785123|   -9.127713|    1.758097|
|         188|  7.1761e+00|  4.3261e-09|  7.6103e-01|  5.0000e-01|  5.0000e-01|  5.0000e-01|   -6.527894|   -6.648118|   -7.146563|   -6.795606|   -6.785728|   -9.127904|    1.758091|
|         189|  7.1740e+00|  4.3261e-09|  7.6103e-01|  5.0000e-01|  5.0000e-01|  5.0000e-01|   -6.528653|   -6.648954|   -7.146557|   -6.796302|   -6.786333|   -9.128093|    1.758086|
|         190|  7.1722e+00|  4.3260e-09|  7.6103e-01|  5.0000e-01|  5.0000e-01|  5.0000e-01|   -6.529412|   -6.649791|   -7.146548|   -6.796995|   -6.786939|   -9.128279|    1.758080|
|         191|  7.1712e+00|  4.3260e-09|  7.6103e-01|  5.0000e-01|  5.0000e-01|  5.0000e-01|   -6.530170|   -6.650629|   -7.146535|   -6.797688|   -6.787544|   -9.128464|    1.758074|
|         192|  7.1703e+00|  4.3259e-09|  7.6103e-01|  5.0000e-01|  5.0000e-01|  5.0000e-01|   -6.530926|   -6.651469|   -7.146520|   -6.798379|   -6.788150|   -9.128646|    1.758068|
|         193|  7.1698e+00|  4.3258e-09|  7.6103e-01|  5.0000e-01|  5.0000e-01|  5.0000e-01|   -6.531682|   -6.652310|   -7.146503|   -6.799068|   -6.788755|   -9.128826|    1.758063|
|         194|  7.1687e+00|  4.3258e-09|  7.6103e-01|  5.0000e-01|  5.0000e-01|  5.0000e-01|   -6.532436|   -6.653153|   -7.146482|   -6.799756|   -6.789360|   -9.129003|    1.758057|
|         195|  7.1671e+00|  4.3257e-09|  7.6103e-01|  5.0000e-01|  5.0000e-01|  5.0000e-01|   -6.533189|   -6.653996|   -7.146459|   -6.800441|   -6.789965|   -9.129179|    1.758052|
|         196|  7.1673e+00|  4.3257e-09|  7.6103e-01|  5.0000e-01|  5.0000e-01|  5.0000e-01|   -6.533940|   -6.654841|   -7.146433|   -6.801125|   -6.790569|   -9.129352|    1.758046|
|         197|  7.1669e+00|  4.3256e-09|  7.6103e-01|  5.0000e-01|  5.0000e-01|  5.0000e-01|   -6.534690|   -6.655686|   -7.146404|   -6.801807|   -6.791173|   -9.129522|    1.758040|
|         198|  7.1659e+00|  4.3256e-09|  7.6103e-01|  5.0000e-01|  5.0000e-01|  5.0000e-01|   -6.535439|   -6.656532|   -7.146373|   -6.802487|   -6.791777|   -9.129690|    1.758035|
|         199|  7.1649e+00|  4.3255e-09|  7.6103e-01|  5.0000e-01|  5.0000e-01|  5.0000e-01|   -6.536185|   -6.657379|   -7.146339|   -6.803164|   -6.792380|   -9.129856|    1.758029|
|         200|  7.1637e+00|  4.3255e-09|  7.6103e-01|  5.0000e-01|  5.0000e-01|  5.0000e-01|   -6.536930|   -6.658227|   -7.146302|   -6.803839|   -6.792983|   -9.130019|    1.758024|
|         201|  7.1629e+00|  4.3254e-09|  7.6103e-01|  5.0000e-01|  5.0000e-01|  5.0000e-01|   -6.537673|   -6.659076|   -7.146263|   -6.804512|   -6.793585|   -9.130179|    1.758018|
|         202|  7.1628e+00|  4.3253e-09|  7.6103e-01|  5.0000e-01|  5.0000e-01|  5.0000e-01|   -6.538414|   -6.659925|   -7.146222|   -6.805183|   -6.794187|   -9.130337|    1.758013|
|         203|  7.1619e+00|  4.3253e-09|  7.6103e-01|  5.0000e-01|  5.0000e-01|  5.0000e-01|   -6.539153|   -6.660775|   -7.146177|   -6.805851|   -6.794788|   -9.130492|    1.758007|
|         204|  7.1610e+00|  4.3252e-09|  7.6103e-01|  5.0000e-01|  5.0000e-01|  5.0000e-01|   -6.539890|   -6.661625|   -7.146130|   -6.806517|   -6.795388|   -9.130644|    1.758002|
|         205|  7.1600e+00|  4.3252e-09|  7.6103e-01|  5.0000e-01|  5.0000e-01|  5.0000e-01|   -6.540624|   -6.662475|   -7.146081|   -6.807180|   -6.795987|   -9.130794|    1.757996|
|         206|  7.1588e+00|  4.3251e-09|  7.6103e-01|  5.0000e-01|  5.0000e-01|  5.0000e-01|   -6.541356|   -6.663326|   -7.146028|   -6.807840|   -6.796586|   -9.130941|    1.757991|
|         207|  7.1578e+00|  4.3251e-09|  7.6103e-01|  5.0000e-01|  5.0000e-01|  5.0000e-01|   -6.542086|   -6.664177|   -7.145973|   -6.808496|   -6.797183|   -9.131084|    1.757985|
|         208|  7.1569e+00|  4.3250e-09|  7.6103e-01|  5.0000e-01|  5.0000e-01|  5.0000e-01|   -6.542813|   -6.665028|   -7.145916|   -6.809150|   -6.797780|   -9.131225|    1.757980|
|         209|  7.1565e+00|  4.3250e-09|  7.6103e-01|  5.0000e-01|  5.0000e-01|  5.0000e-01|   -6.543537|   -6.665878|   -7.145856|   -6.809801|   -6.798375|   -9.131363|    1.757975|
|         210|  7.1562e+00|  4.3249e-09|  7.6103e-01|  5.0000e-01|  5.0000e-01|  5.0000e-01|   -6.544258|   -6.666729|   -7.145793|   -6.810448|   -6.798969|   -9.131497|    1.757969|
|         211|  7.1556e+00|  4.3249e-09|  7.6103e-01|  5.0000e-01|  5.0000e-01|  5.0000e-01|   -6.544977|   -6.667579|   -7.145728|   -6.811092|   -6.799562|   -9.131629|    1.757964|
|         212|  7.1550e+00|  4.3248e-09|  7.6103e-01|  5.0000e-01|  5.0000e-01|  5.0000e-01|   -6.545692|   -6.668429|   -7.145661|   -6.811733|   -6.800153|   -9.131758|    1.757959|
|         213|  7.1549e+00|  4.3247e-09|  7.6103e-01|  5.0000e-01|  5.0000e-01|  5.0000e-01|   -6.546404|   -6.669278|   -7.145591|   -6.812370|   -6.800743|   -9.131883|    1.757953|
|         214|  7.1542e+00|  4.3247e-09|  7.6103e-01|  5.0000e-01|  5.0000e-01|  5.0000e-01|   -6.547113|   -6.670126|   -7.145518|   -6.813003|   -6.801332|   -9.132005|    1.757948|
|         215|  7.1532e+00|  4.3246e-09|  7.6103e-01|  5.0000e-01|  5.0000e-01|  5.0000e-01|   -6.547818|   -6.670974|   -7.145444|   -6.813632|   -6.801919|   -9.132123|    1.757943|
|         216|  7.1524e+00|  4.3246e-09|  7.6103e-01|  5.0000e-01|  5.0000e-01|  5.0000e-01|   -6.548520|   -6.671821|   -7.145366|   -6.814258|   -6.802504|   -9.132239|    1.757937|
|         217|  7.1512e+00|  4.3245e-09|  7.6103e-01|  5.0000e-01|  5.0000e-01|  5.0000e-01|   -6.549218|   -6.672667|   -7.145286|   -6.814879|   -6.803087|   -9.132351|    1.757932|
|         218|  7.1499e+00|  4.3245e-09|  7.6103e-01|  5.0000e-01|  5.0000e-01|  5.0000e-01|   -6.549913|   -6.673512|   -7.145203|   -6.815496|   -6.803669|   -9.132459|    1.757927|
|         219|  7.1488e+00|  4.3244e-09|  7.6103e-01|  5.0000e-01|  5.0000e-01|  5.0000e-01|   -6.550604|   -6.674355|   -7.145118|   -6.816109|   -6.804249|   -9.132564|    1.757922|
|         220|  7.1484e+00|  4.3244e-09|  7.6103e-01|  5.0000e-01|  5.0000e-01|  5.0000e-01|   -6.551290|   -6.675198|   -7.145030|   -6.816718|   -6.804826|   -9.132665|    1.757917|
|         221|  7.1480e+00|  4.3243e-09|  7.6103e-01|  5.0000e-01|  5.0000e-01|  5.0000e-01|   -6.551973|   -6.676039|   -7.144940|   -6.817322|   -6.805402|   -9.132763|    1.757911|
|         222|  7.1471e+00|  4.3242e-09|  7.6103e-01|  5.0000e-01|  5.0000e-01|  5.0000e-01|   -6.552651|   -6.676878|   -7.144848|   -6.817922|   -6.805975|   -9.132857|    1.757906|
|         223|  7.1463e+00|  4.3242e-09|  7.6103e-01|  5.0000e-01|  5.0000e-01|  5.0000e-01|   -6.553325|   -6.677716|   -7.144752|   -6.818516|   -6.806546|   -9.132947|    1.757901|
|         224|  7.1450e+00|  4.3241e-09|  7.6103e-01|  5.0000e-01|  5.0000e-01|  5.0000e-01|   -6.553994|   -6.678552|   -7.144655|   -6.819106|   -6.807115|   -9.133034|    1.757896|
|         225|  7.1439e+00|  4.3241e-09|  7.6103e-01|  5.0000e-01|  5.0000e-01|  5.0000e-01|   -6.554659|   -6.679386|   -7.144555|   -6.819691|   -6.807681|   -9.133117|    1.757891|
|         226|  7.1427e+00|  4.3240e-09|  7.6103e-01|  5.0000e-01|  5.0000e-01|  5.0000e-01|   -6.555319|   -6.680218|   -7.144453|   -6.820271|   -6.808244|   -9.133195|    1.757886|
|         227|  7.1426e+00|  4.3240e-09|  7.6103e-01|  5.0000e-01|  5.0000e-01|  5.0000e-01|   -6.555974|   -6.681047|   -7.144349|   -6.820846|   -6.808805|   -9.133270|    1.757881|
|         228|  7.1422e+00|  4.3239e-09|  7.6103e-01|  5.0000e-01|  5.0000e-01|  5.0000e-01|   -6.556624|   -6.681875|   -7.144242|   -6.821415|   -6.809364|   -9.133341|    1.757876|
|         229|  7.1430e+00|  4.3239e-09|  7.6103e-01|  5.0000e-01|  5.0000e-01|  5.0000e-01|   -6.557269|   -6.682700|   -7.144133|   -6.821980|   -6.809920|   -9.133408|    1.757871|
|         230|  7.1427e+00|  4.3238e-09|  7.6103e-01|  5.0000e-01|  5.0000e-01|  5.0000e-01|   -6.557909|   -6.683523|   -7.144022|   -6.822539|   -6.810473|   -9.133470|    1.757866|
|         231|  7.1425e+00|  4.3238e-09|  7.6103e-01|  5.0000e-01|  5.0000e-01|  5.0000e-01|   -6.558544|   -6.684343|   -7.143908|   -6.823092|   -6.811023|   -9.133529|    1.757861|
|         232|  7.1425e+00|  4.3237e-09|  7.6103e-01|  5.0000e-01|  5.0000e-01|  5.0000e-01|   -6.559174|   -6.685160|   -7.143792|   -6.823640|   -6.811570|   -9.133583|    1.757856|
|         233|  7.1416e+00|  4.3236e-09|  7.6103e-01|  5.0000e-01|  5.0000e-01|  5.0000e-01|   -6.559798|   -6.685975|   -7.143674|   -6.824182|   -6.812114|   -9.133633|    1.757851|
|         234|  7.1414e+00|  4.3236e-09|  7.6103e-01|  5.0000e-01|  5.0000e-01|  5.0000e-01|   -6.560416|   -6.686786|   -7.143554|   -6.824717|   -6.812655|   -9.133679|    1.757846|
|         235|  7.1404e+00|  4.3235e-09|  7.6103e-01|  5.0000e-01|  5.0000e-01|  5.0000e-01|   -6.561028|   -6.687595|   -7.143432|   -6.825247|   -6.813193|   -9.133720|    1.757841|
|         236|  7.1403e+00|  4.3235e-09|  7.6103e-01|  5.0000e-01|  5.0000e-01|  5.0000e-01|   -6.561635|   -6.688400|   -7.143308|   -6.825771|   -6.813728|   -9.133757|    1.757836|
|         237|  7.1401e+00|  4.3234e-09|  7.6103e-01|  5.0000e-01|  5.0000e-01|  5.0000e-01|   -6.562236|   -6.689202|   -7.143181|   -6.826289|   -6.814259|   -9.133789|    1.757831|
|         238|  7.1397e+00|  4.3234e-09|  7.6103e-01|  5.0000e-01|  5.0000e-01|  5.0000e-01|   -6.562830|   -6.690000|   -7.143053|   -6.826800|   -6.814786|   -9.133817|    1.757827|
|         239|  7.1385e+00|  4.3233e-09|  7.6103e-01|  5.0000e-01|  5.0000e-01|  5.0000e-01|   -6.563418|   -6.690795|   -7.142923|   -6.827305|   -6.815311|   -9.133840|    1.757822|
|         240|  7.1373e+00|  4.3233e-09|  7.6103e-01|  5.0000e-01|  5.0000e-01|  5.0000e-01|   -6.564000|   -6.691586|   -7.142790|   -6.827803|   -6.815831|   -9.133859|    1.757817|
|         241|  7.1367e+00|  4.3232e-09|  7.6103e-01|  5.0000e-01|  5.0000e-01|  5.0000e-01|   -6.564575|   -6.692373|   -7.142655|   -6.828295|   -6.816348|   -9.133873|    1.757812|
|         242|  7.1367e+00|  4.3231e-09|  7.6103e-01|  5.0000e-01|  5.0000e-01|  5.0000e-01|   -6.565144|   -6.693157|   -7.142518|   -6.828780|   -6.816861|   -9.133882|    1.757807|
|         243|  7.1360e+00|  4.3231e-09|  7.6103e-01|  5.0000e-01|  5.0000e-01|  5.0000e-01|   -6.565706|   -6.693936|   -7.142379|   -6.829257|   -6.817370|   -9.133886|    1.757803|
|         244|  7.1351e+00|  4.3230e-09|  7.6103e-01|  5.0000e-01|  5.0000e-01|  5.0000e-01|   -6.566260|   -6.694711|   -7.142238|   -6.829728|   -6.817875|   -9.133886|    1.757798|
|         245|  7.1358e+00|  4.3230e-09|  7.6103e-01|  5.0000e-01|  5.0000e-01|  5.0000e-01|   -6.566808|   -6.695481|   -7.142095|   -6.830192|   -6.818376|   -9.133881|    1.757793|
|         246|  7.1391e+00|  4.3229e-09|  7.6103e-01|  5.0000e-01|  5.0000e-01|  5.0000e-01|   -6.567349|   -6.696247|   -7.141950|   -6.830649|   -6.818872|   -9.133870|    1.757789|
|         247|  7.1396e+00|  4.3229e-09|  7.6103e-01|  5.0000e-01|  5.0000e-01|  5.0000e-01|   -6.567883|   -6.697008|   -7.141803|   -6.831098|   -6.819365|   -9.133855|    1.757784|
|         248|  7.1396e+00|  4.3228e-09|  7.6103e-01|  5.0000e-01|  5.0000e-01|  5.0000e-01|   -6.568409|   -6.697764|   -7.141654|   -6.831540|   -6.819854|   -9.133834|    1.757779|
|         249|  7.1391e+00|  4.3228e-09|  7.6103e-01|  5.0000e-01|  5.0000e-01|  5.0000e-01|   -6.568928|   -6.698516|   -7.141504|   -6.831975|   -6.820338|   -9.133809|    1.757775|
|         250|  7.1384e+00|  4.3227e-09|  7.6103e-01|  5.0000e-01|  5.0000e-01|  5.0000e-01|   -6.569440|   -6.699262|   -7.141352|   -6.832403|   -6.820818|   -9.133778|    1.757770|
|         251|  7.1388e+00|  4.3227e-09|  7.6103e-01|  5.0000e-01|  5.0000e-01|  5.0000e-01|   -6.569944|   -6.700003|   -7.141197|   -6.832822|   -6.821293|   -9.133742|    1.757766|
|         252|  7.1397e+00|  4.3226e-09|  7.6103e-01|  5.0000e-01|  5.0000e-01|  5.0000e-01|   -6.570440|   -6.700739|   -7.141041|   -6.833233|   -6.821764|   -9.133701|    1.757761|
|         253|  7.1395e+00|  4.3225e-09|  7.6103e-01|  5.0000e-01|  5.0000e-01|  5.0000e-01|   -6.570927|   -6.701469|   -7.140883|   -6.833637|   -6.822229|   -9.133655|    1.757757|
|         254|  7.1397e+00|  4.3225e-09|  7.6103e-01|  5.0000e-01|  5.0000e-01|  5.0000e-01|   -6.571407|   -6.702193|   -7.140723|   -6.834032|   -6.822690|   -9.133603|    1.757752|
|         255|  7.1391e+00|  4.3224e-09|  7.6103e-01|  5.0000e-01|  5.0000e-01|  5.0000e-01|   -6.571879|   -6.702911|   -7.140562|   -6.834419|   -6.823146|   -9.133546|    1.757748|
|         256|  7.1390e+00|  4.3224e-09|  7.6103e-01|  5.0000e-01|  5.0000e-01|  5.0000e-01|   -6.572342|   -6.703623|   -7.140398|   -6.834799|   -6.823596|   -9.133484|    1.757743|
|         257|  7.1382e+00|  4.3223e-09|  7.6103e-01|  5.0000e-01|  5.0000e-01|  5.0000e-01|   -6.572796|   -6.704329|   -7.140233|   -6.835169|   -6.824042|   -9.133416|    1.757739|
|         258|  7.1376e+00|  4.3223e-09|  7.6103e-01|  5.0000e-01|  5.0000e-01|  5.0000e-01|   -6.573243|   -6.705029|   -7.140067|   -6.835531|   -6.824482|   -9.133342|    1.757734|
|         259|  7.1367e+00|  4.3222e-09|  7.6103e-01|  5.0000e-01|  5.0000e-01|  5.0000e-01|   -6.573680|   -6.705722|   -7.139898|   -6.835885|   -6.824917|   -9.133263|    1.757730|
|         260|  7.1360e+00|  4.3222e-09|  7.6103e-01|  5.0000e-01|  5.0000e-01|  5.0000e-01|   -6.574108|   -6.706408|   -7.139728|   -6.836229|   -6.825347|   -9.133178|    1.757726|
|         261|  7.1354e+00|  4.3221e-09|  7.6103e-01|  5.0000e-01|  5.0000e-01|  5.0000e-01|   -6.574528|   -6.707088|   -7.139557|   -6.836565|   -6.825771|   -9.133088|    1.757721|
|         262|  7.1375e+00|  4.3221e-09|  7.6103e-01|  5.0000e-01|  5.0000e-01|  5.0000e-01|   -6.574939|   -6.707760|   -7.139383|   -6.836893|   -6.826189|   -9.132992|    1.757717|
|         263|  7.1380e+00|  4.3220e-09|  7.6103e-01|  5.0000e-01|  5.0000e-01|  5.0000e-01|   -6.575340|   -6.708426|   -7.139209|   -6.837211|   -6.826602|   -9.132890|    1.757713|
|         264|  7.1390e+00|  4.3219e-09|  7.6103e-01|  5.0000e-01|  5.0000e-01|  5.0000e-01|   -6.575733|   -6.709084|   -7.139033|   -6.837520|   -6.827009|   -9.132782|    1.757709|
|         265|  7.1394e+00|  4.3219e-09|  7.6103e-01|  5.0000e-01|  5.0000e-01|  5.0000e-01|   -6.576116|   -6.709735|   -7.138855|   -6.837821|   -6.827411|   -9.132669|    1.757704|
|         266|  7.1387e+00|  4.3218e-09|  7.6103e-01|  5.0000e-01|  5.0000e-01|  5.0000e-01|   -6.576490|   -6.710378|   -7.138676|   -6.838112|   -6.827806|   -9.132549|    1.757700|
|         267|  7.1389e+00|  4.3218e-09|  7.6103e-01|  5.0000e-01|  5.0000e-01|  5.0000e-01|   -6.576855|   -6.711014|   -7.138496|   -6.838394|   -6.828196|   -9.132424|    1.757696|
|         268|  7.1379e+00|  4.3217e-09|  7.6103e-01|  5.0000e-01|  5.0000e-01|  5.0000e-01|   -6.577211|   -6.711642|   -7.138315|   -6.838668|   -6.828581|   -9.132293|    1.757692|
|         269|  7.1366e+00|  4.3217e-09|  7.6103e-01|  5.0000e-01|  5.0000e-01|  5.0000e-01|   -6.577557|   -6.712263|   -7.138132|   -6.838931|   -6.828959|   -9.132156|    1.757688|
|         270|  7.1361e+00|  4.3216e-09|  7.6103e-01|  5.0000e-01|  5.0000e-01|  5.0000e-01|   -6.577892|   -6.712875|   -7.137947|   -6.839185|   -6.829330|   -9.132013|    1.757684|
|         271|  7.1355e+00|  4.3216e-09|  7.6103e-01|  5.0000e-01|  5.0000e-01|  5.0000e-01|   -6.578219|   -6.713479|   -7.137761|   -6.839430|   -6.829696|   -9.131864|    1.757679|
|         272|  7.1350e+00|  4.3215e-09|  7.6103e-01|  5.0000e-01|  5.0000e-01|  5.0000e-01|   -6.578535|   -6.714074|   -7.137573|   -6.839665|   -6.830055|   -9.131708|    1.757675|
|         273|  7.1347e+00|  4.3214e-09|  7.6103e-01|  5.0000e-01|  5.0000e-01|  5.0000e-01|   -6.578841|   -6.714661|   -7.137384|   -6.839891|   -6.830407|   -9.131547|    1.757671|
|         274|  7.1343e+00|  4.3214e-09|  7.6103e-01|  5.0000e-01|  5.0000e-01|  5.0000e-01|   -6.579137|   -6.715239|   -7.137193|   -6.840106|   -6.830753|   -9.131379|    1.757667|
|         275|  7.1338e+00|  4.3213e-09|  7.6103e-01|  5.0000e-01|  5.0000e-01|  5.0000e-01|   -6.579423|   -6.715809|   -7.137001|   -6.840312|   -6.831093|   -9.131205|    1.757663|
|         276|  7.1332e+00|  4.3213e-09|  7.6103e-01|  5.0000e-01|  5.0000e-01|  5.0000e-01|   -6.579698|   -6.716370|   -7.136808|   -6.840509|   -6.831426|   -9.131025|    1.757659|
|         277|  7.1323e+00|  4.3212e-09|  7.6103e-01|  5.0000e-01|  5.0000e-01|  5.0000e-01|   -6.579964|   -6.716921|   -7.136613|   -6.840695|   -6.831752|   -9.130839|    1.757655|
|         278|  7.1318e+00|  4.3212e-09|  7.6103e-01|  5.0000e-01|  5.0000e-01|  5.0000e-01|   -6.580218|   -6.717464|   -7.136417|   -6.840871|   -6.832072|   -9.130647|    1.757652|
|         279|  7.1329e+00|  4.3211e-09|  7.6103e-01|  5.0000e-01|  5.0000e-01|  5.0000e-01|   -6.580463|   -6.717997|   -7.136219|   -6.841038|   -6.832384|   -9.130448|    1.757648|
|         280|  7.1327e+00|  4.3211e-09|  7.6103e-01|  5.0000e-01|  5.0000e-01|  5.0000e-01|   -6.580697|   -6.718521|   -7.136021|   -6.841194|   -6.832691|   -9.130243|    1.757644|
|         281|  7.1323e+00|  4.3210e-09|  7.6103e-01|  5.0000e-01|  5.0000e-01|  5.0000e-01|   -6.580921|   -6.719035|   -7.135822|   -6.841341|   -6.832990|   -9.130031|    1.757640|
|         282|  7.1316e+00|  4.3210e-09|  7.6103e-01|  5.0000e-01|  5.0000e-01|  5.0000e-01|   -6.581134|   -6.719539|   -7.135621|   -6.841477|   -6.833282|   -9.129813|    1.757636|
|         283|  7.1316e+00|  4.3209e-09|  7.6103e-01|  5.0000e-01|  5.0000e-01|  5.0000e-01|   -6.581336|   -6.720034|   -7.135419|   -6.841604|   -6.833567|   -9.129589|    1.757632|
|         284|  7.1307e+00|  4.3208e-09|  7.6103e-01|  5.0000e-01|  5.0000e-01|  5.0000e-01|   -6.581527|   -6.720519|   -7.135216|   -6.841719|   -6.833844|   -9.129358|    1.757629|
|         285|  7.1301e+00|  4.3208e-09|  7.6103e-01|  5.0000e-01|  5.0000e-01|  5.0000e-01|   -6.581708|   -6.720994|   -7.135011|   -6.841825|   -6.834115|   -9.129121|    1.757625|
|         286|  7.1294e+00|  4.3207e-09|  7.6103e-01|  5.0000e-01|  5.0000e-01|  5.0000e-01|   -6.581878|   -6.721458|   -7.134805|   -6.841921|   -6.834378|   -9.128877|    1.757621|
|         287|  7.1284e+00|  4.3207e-09|  7.6103e-01|  5.0000e-01|  5.0000e-01|  5.0000e-01|   -6.582037|   -6.721912|   -7.134598|   -6.842006|   -6.834634|   -9.128627|    1.757617|
|         288|  7.1275e+00|  4.3206e-09|  7.6103e-01|  5.0000e-01|  5.0000e-01|  5.0000e-01|   -6.582184|   -6.722356|   -7.134390|   -6.842081|   -6.834883|   -9.128370|    1.757614|
|         289|  7.1269e+00|  4.3206e-09|  7.6103e-01|  5.0000e-01|  5.0000e-01|  5.0000e-01|   -6.582321|   -6.722789|   -7.134181|   -6.842145|   -6.835124|   -9.128107|    1.757610|
|         290|  7.1261e+00|  4.3205e-09|  7.6103e-01|  5.0000e-01|  5.0000e-01|  5.0000e-01|   -6.582446|   -6.723212|   -7.133971|   -6.842199|   -6.835358|   -9.127837|    1.757607|
|         291|  7.1257e+00|  4.3205e-09|  7.6103e-01|  5.0000e-01|  5.0000e-01|  5.0000e-01|   -6.582561|   -6.723624|   -7.133759|   -6.842242|   -6.835584|   -9.127560|    1.757603|
|         292|  7.1249e+00|  4.3204e-09|  7.6103e-01|  5.0000e-01|  5.0000e-01|  5.0000e-01|   -6.582664|   -6.724025|   -7.133547|   -6.842275|   -6.835802|   -9.127277|    1.757599|
|         293|  7.1238e+00|  4.3204e-09|  7.6103e-01|  5.0000e-01|  5.0000e-01|  5.0000e-01|   -6.582756|   -6.724415|   -7.133334|   -6.842297|   -6.836013|   -9.126988|    1.757596|
|         294|  7.1228e+00|  4.3203e-09|  7.6103e-01|  5.0000e-01|  5.0000e-01|  5.0000e-01|   -6.582837|   -6.724793|   -7.133120|   -6.842309|   -6.836216|   -9.126691|    1.757592|
|         295|  7.1224e+00|  4.3202e-09|  7.6103e-01|  5.0000e-01|  5.0000e-01|  5.0000e-01|   -6.582906|   -6.725161|   -7.132905|   -6.842310|   -6.836411|   -9.126388|    1.757589|
|         296|  7.1219e+00|  4.3202e-09|  7.6103e-01|  5.0000e-01|  5.0000e-01|  5.0000e-01|   -6.582964|   -6.725517|   -7.132689|   -6.842300|   -6.836598|   -9.126079|    1.757585|
|         297|  7.1223e+00|  4.3201e-09|  7.6103e-01|  5.0000e-01|  5.0000e-01|  5.0000e-01|   -6.583011|   -6.725862|   -7.132472|   -6.842280|   -6.836778|   -9.125763|    1.757582|
|         298|  7.1221e+00|  4.3201e-09|  7.6103e-01|  5.0000e-01|  5.0000e-01|  5.0000e-01|   -6.583046|   -6.726195|   -7.132254|   -6.842249|   -6.836950|   -9.125440|    1.757579|
|         299|  7.1218e+00|  4.3200e-09|  7.6103e-01|  5.0000e-01|  5.0000e-01|  5.0000e-01|   -6.583070|   -6.726516|   -7.132036|   -6.842208|   -6.837113|   -9.125110|    1.757575|
|         300|  7.1222e+00|  4.3200e-09|  7.6103e-01|  5.0000e-01|  5.0000e-01|  5.0000e-01|   -6.583083|   -6.726826|   -7.131816|   -6.842156|   -6.837269|   -9.124774|    1.757572|
+-----------------------------------------------------------------------+
|        File Writing Summary       |              Filename             |
+-----------------------------------------------------------------------+
|SU2 binary restart                 |restart_flow.dat                   |
|Paraview                           |flow.vtu                           |
|Paraview surface                   |surface_flow.vtu                   |
+-----------------------------------------------------------------------+
+-------------------------------------------------------------------------------------------------------------------------------------------------------------------------------------+
|  Inner_Iter|   Time(sec)|      Min DT|      Max DT|     Min CFL|     Max CFL|     Avg CFL|    rms[Rho]|   rms[RhoU]|   rms[RhoV]|   rms[RhoW]|   rms[RhoE]|     rms[nu]|          CD|
+-------------------------------------------------------------------------------------------------------------------------------------------------------------------------------------+
|         301|  7.1922e+00|  4.3199e-09|  7.6103e-01|  5.0000e-01|  5.0000e-01|  5.0000e-01|   -6.583084|   -6.727124|   -7.131596|   -6.842094|   -6.837417|   -9.124431|    1.757568|
|         302|  7.1934e+00|  4.3199e-09|  7.6103e-01|  5.0000e-01|  5.0000e-01|  5.0000e-01|   -6.583074|   -6.727410|   -7.131376|   -6.842021|   -6.837556|   -9.124081|    1.757565|
|         303|  7.1934e+00|  4.3198e-09|  7.6103e-01|  5.0000e-01|  5.0000e-01|  5.0000e-01|   -6.583052|   -6.727684|   -7.131154|   -6.841937|   -6.837688|   -9.123725|    1.757562|
|         304|  7.1940e+00|  4.3198e-09|  7.6103e-01|  5.0000e-01|  5.0000e-01|  5.0000e-01|   -6.583019|   -6.727947|   -7.130932|   -6.841843|   -6.837811|   -9.123362|    1.757559|
|         305|  7.1938e+00|  4.3197e-09|  7.6103e-01|  5.0000e-01|  5.0000e-01|  5.0000e-01|   -6.582975|   -6.728197|   -7.130710|   -6.841739|   -6.837927|   -9.122992|    1.757555|
|         306|  7.1945e+00|  4.3196e-09|  7.6103e-01|  5.0000e-01|  5.0000e-01|  5.0000e-01|   -6.582919|   -6.728434|   -7.130486|   -6.841624|   -6.838034|   -9.122616|    1.757552|
|         307|  7.1961e+00|  4.3196e-09|  7.6103e-01|  5.0000e-01|  5.0000e-01|  5.0000e-01|   -6.582852|   -6.728660|   -7.130262|   -6.841498|   -6.838133|   -9.122233|    1.757549|
|         308|  7.1960e+00|  4.3195e-09|  7.6103e-01|  5.0000e-01|  5.0000e-01|  5.0000e-01|   -6.582774|   -6.728873|   -7.130038|   -6.841362|   -6.838224|   -9.121843|    1.757546|
|         309|  7.1949e+00|  4.3195e-09|  7.6103e-01|  5.0000e-01|  5.0000e-01|  5.0000e-01|   -6.582685|   -6.729074|   -7.129813|   -6.841215|   -6.838307|   -9.121446|    1.757543|
|         310|  7.1949e+00|  4.3194e-09|  7.6103e-01|  5.0000e-01|  5.0000e-01|  5.0000e-01|   -6.582584|   -6.729263|   -7.129587|   -6.841058|   -6.838381|   -9.121043|    1.757540|
|         311|  7.1948e+00|  4.3194e-09|  7.6103e-01|  5.0000e-01|  5.0000e-01|  5.0000e-01|   -6.582472|   -6.729439|   -7.129361|   -6.840891|   -6.838448|   -9.120633|    1.757537|
|         312|  7.1956e+00|  4.3193e-09|  7.6103e-01|  5.0000e-01|  5.0000e-01|  5.0000e-01|   -6.582348|   -6.729602|   -7.129135|   -6.840714|   -6.838506|   -9.120217|    1.757534|
|         313|  7.1951e+00|  4.3193e-09|  7.6103e-01|  5.0000e-01|  5.0000e-01|  5.0000e-01|   -6.582214|   -6.729753|   -7.128908|   -6.840526|   -6.838555|   -9.119793|    1.757531|
|         314|  7.1946e+00|  4.3192e-09|  7.6103e-01|  5.0000e-01|  5.0000e-01|  5.0000e-01|   -6.582068|   -6.729891|   -7.128680|   -6.840327|   -6.838596|   -9.119364|    1.757528|
|         315|  7.1939e+00|  4.3191e-09|  7.6103e-01|  5.0000e-01|  5.0000e-01|  5.0000e-01|   -6.581911|   -6.730017|   -7.128452|   -6.840119|   -6.838629|   -9.118927|    1.757525|
|         316|  7.1928e+00|  4.3191e-09|  7.6103e-01|  5.0000e-01|  5.0000e-01|  5.0000e-01|   -6.581742|   -6.730129|   -7.128223|   -6.839900|   -6.838653|   -9.118484|    1.757522|
|         317|  7.1920e+00|  4.3190e-09|  7.6103e-01|  5.0000e-01|  5.0000e-01|  5.0000e-01|   -6.581562|   -6.730229|   -7.127994|   -6.839670|   -6.838669|   -9.118034|    1.757519|
|         318|  7.1909e+00|  4.3190e-09|  7.6103e-01|  5.0000e-01|  5.0000e-01|  5.0000e-01|   -6.581371|   -6.730316|   -7.127764|   -6.839431|   -6.838676|   -9.117578|    1.757516|
|         319|  7.1900e+00|  4.3189e-09|  7.6103e-01|  5.0000e-01|  5.0000e-01|  5.0000e-01|   -6.581169|   -6.730390|   -7.127534|   -6.839182|   -6.838675|   -9.117115|    1.757513|
|         320|  7.1889e+00|  4.3189e-09|  7.6103e-01|  5.0000e-01|  5.0000e-01|  5.0000e-01|   -6.580956|   -6.730452|   -7.127304|   -6.838922|   -6.838666|   -9.116645|    1.757510|
|         321|  7.1885e+00|  4.3188e-09|  7.6103e-01|  5.0000e-01|  5.0000e-01|  5.0000e-01|   -6.580732|   -6.730500|   -7.127073|   -6.838653|   -6.838648|   -9.116169|    1.757508|
|         322|  7.1876e+00|  4.3188e-09|  7.6103e-01|  5.0000e-01|  5.0000e-01|  5.0000e-01|   -6.580497|   -6.730536|   -7.126842|   -6.838373|   -6.838622|   -9.115686|    1.757505|
|         323|  7.1865e+00|  4.3187e-09|  7.6103e-01|  5.0000e-01|  5.0000e-01|  5.0000e-01|   -6.580251|   -6.730559|   -7.126611|   -6.838084|   -6.838587|   -9.115197|    1.757502|
|         324|  7.1853e+00|  4.3187e-09|  7.6103e-01|  5.0000e-01|  5.0000e-01|  5.0000e-01|   -6.579994|   -6.730568|   -7.126380|   -6.837784|   -6.838544|   -9.114701|    1.757499|
|         325|  7.1845e+00|  4.3186e-09|  7.6103e-01|  5.0000e-01|  5.0000e-01|  5.0000e-01|   -6.579727|   -6.730565|   -7.126149|   -6.837475|   -6.838493|   -9.114199|    1.757497|
|         326|  7.1837e+00|  4.3185e-09|  7.6103e-01|  5.0000e-01|  5.0000e-01|  5.0000e-01|   -6.579448|   -6.730549|   -7.125917|   -6.837156|   -6.838433|   -9.113691|    1.757494|
|         327|  7.1831e+00|  4.3185e-09|  7.6103e-01|  5.0000e-01|  5.0000e-01|  5.0000e-01|   -6.579159|   -6.730520|   -7.125686|   -6.836828|   -6.838364|   -9.113176|    1.757491|
|         328|  7.1835e+00|  4.3184e-09|  7.6103e-01|  5.0000e-01|  5.0000e-01|  5.0000e-01|   -6.578859|   -6.730478|   -7.125454|   -6.836489|   -6.838288|   -9.112654|    1.757489|
|         329|  7.1829e+00|  4.3184e-09|  7.6103e-01|  5.0000e-01|  5.0000e-01|  5.0000e-01|   -6.578549|   -6.730423|   -7.125222|   -6.836142|   -6.838203|   -9.112126|    1.757486|
|         330|  7.1828e+00|  4.3183e-09|  7.6103e-01|  5.0000e-01|  5.0000e-01|  5.0000e-01|   -6.578229|   -6.730355|   -7.124991|   -6.835785|   -6.838110|   -9.111592|    1.757484|
|         331|  7.1818e+00|  4.3183e-09|  7.6103e-01|  5.0000e-01|  5.0000e-01|  5.0000e-01|   -6.577898|   -6.730275|   -7.124759|   -6.835419|   -6.838008|   -9.111052|    1.757481|
|         332|  7.1817e+00|  4.3182e-09|  7.6103e-01|  5.0000e-01|  5.0000e-01|  5.0000e-01|   -6.577557|   -6.730181|   -7.124529|   -6.835043|   -6.837898|   -9.110505|    1.757479|
|         333|  7.1808e+00|  4.3182e-09|  7.6103e-01|  5.0000e-01|  5.0000e-01|  5.0000e-01|   -6.577205|   -6.730075|   -7.124298|   -6.834658|   -6.837780|   -9.109952|    1.757476|
|         334|  7.1797e+00|  4.3181e-09|  7.6103e-01|  5.0000e-01|  5.0000e-01|  5.0000e-01|   -6.576844|   -6.729956|   -7.124067|   -6.834265|   -6.837654|   -9.109392|    1.757474|
|         335|  7.1787e+00|  4.3181e-09|  7.6103e-01|  5.0000e-01|  5.0000e-01|  5.0000e-01|   -6.576473|   -6.729823|   -7.123836|   -6.833862|   -6.837520|   -9.108827|    1.757471|
|         336|  7.1779e+00|  4.3180e-09|  7.6103e-01|  5.0000e-01|  5.0000e-01|  5.0000e-01|   -6.576091|   -6.729679|   -7.123605|   -6.833450|   -6.837378|   -9.108255|    1.757469|
|         337|  7.1768e+00|  4.3179e-09|  7.6103e-01|  5.0000e-01|  5.0000e-01|  5.0000e-01|   -6.575700|   -6.729521|   -7.123374|   -6.833029|   -6.837227|   -9.107677|    1.757467|
|         338|  7.1763e+00|  4.3179e-09|  7.6103e-01|  5.0000e-01|  5.0000e-01|  5.0000e-01|   -6.575299|   -6.729350|   -7.123143|   -6.832600|   -6.837068|   -9.107093|    1.757464|
|         339|  7.1756e+00|  4.3178e-09|  7.6103e-01|  5.0000e-01|  5.0000e-01|  5.0000e-01|   -6.574887|   -6.729167|   -7.122912|   -6.832161|   -6.836900|   -9.106503|    1.757462|
|         340|  7.1751e+00|  4.3178e-09|  7.6103e-01|  5.0000e-01|  5.0000e-01|  5.0000e-01|   -6.574467|   -6.728971|   -7.122682|   -6.831714|   -6.836725|   -9.105907|    1.757460|
|         341|  7.1742e+00|  4.3177e-09|  7.6103e-01|  5.0000e-01|  5.0000e-01|  5.0000e-01|   -6.574036|   -6.728762|   -7.122451|   -6.831259|   -6.836541|   -9.105306|    1.757458|
|         342|  7.1733e+00|  4.3177e-09|  7.6103e-01|  5.0000e-01|  5.0000e-01|  5.0000e-01|   -6.573596|   -6.728541|   -7.122221|   -6.830794|   -6.836349|   -9.104698|    1.757455|
|         343|  7.1724e+00|  4.3176e-09|  7.6103e-01|  5.0000e-01|  5.0000e-01|  5.0000e-01|   -6.573147|   -6.728307|   -7.121991|   -6.830321|   -6.836149|   -9.104084|    1.757453|
|         344|  7.1723e+00|  4.3176e-09|  7.6103e-01|  5.0000e-01|  5.0000e-01|  5.0000e-01|   -6.572688|   -6.728061|   -7.121762|   -6.829840|   -6.835941|   -9.103464|    1.757451|
|         345|  7.1727e+00|  4.3175e-09|  7.6103e-01|  5.0000e-01|  5.0000e-01|  5.0000e-01|   -6.572220|   -6.727802|   -7.121532|   -6.829351|   -6.835726|   -9.102839|    1.757449|
|         346|  7.1731e+00|  4.3175e-09|  7.6103e-01|  5.0000e-01|  5.0000e-01|  5.0000e-01|   -6.571743|   -6.727531|   -7.121303|   -6.828854|   -6.835501|   -9.102207|    1.757447|
|         347|  7.1730e+00|  4.3174e-09|  7.6103e-01|  5.0000e-01|  5.0000e-01|  5.0000e-01|   -6.571257|   -6.727247|   -7.121074|   -6.828348|   -6.835269|   -9.101570|    1.757445|
|         348|  7.1725e+00|  4.3173e-09|  7.6103e-01|  5.0000e-01|  5.0000e-01|  5.0000e-01|   -6.570762|   -6.726952|   -7.120846|   -6.827834|   -6.835029|   -9.100928|    1.757443|
|         349|  7.1723e+00|  4.3173e-09|  7.6103e-01|  5.0000e-01|  5.0000e-01|  5.0000e-01|   -6.570257|   -6.726643|   -7.120618|   -6.827312|   -6.834781|   -9.100279|    1.757441|
[...]
|        9334|  6.8078e+00|  3.8820e-09|  7.6103e-01|  5.0000e-01|  5.0000e-01|  5.0000e-01|   -6.836177|   -6.961740|   -7.446280|   -7.127108|   -7.107817|   -9.003161|    1.758607|
|        9335|  6.8078e+00|  3.8820e-09|  7.6103e-01|  5.0000e-01|  5.0000e-01|  5.0000e-01|   -6.836334|   -6.961865|   -7.446187|   -7.127354|   -7.107936|   -9.002878|    1.758609|
|        9336|  6.8077e+00|  3.8819e-09|  7.6103e-01|  5.0000e-01|  5.0000e-01|  5.0000e-01|   -6.836489|   -6.961988|   -7.446091|   -7.127598|   -7.108053|   -9.002596|    1.758612|
|        9337|  6.8077e+00|  3.8819e-09|  7.6103e-01|  5.0000e-01|  5.0000e-01|  5.0000e-01|   -6.836641|   -6.962108|   -7.445992|   -7.127837|   -7.108168|   -9.002318|    1.758615|
|        9338|  6.8077e+00|  3.8818e-09|  7.6103e-01|  5.0000e-01|  5.0000e-01|  5.0000e-01|   -6.836790|   -6.962226|   -7.445891|   -7.128073|   -7.108280|   -9.002042|    1.758617|
|        9339|  6.8076e+00|  3.8818e-09|  7.6103e-01|  5.0000e-01|  5.0000e-01|  5.0000e-01|   -6.836936|   -6.962341|   -7.445788|   -7.128305|   -7.108389|   -9.001769|    1.758620|
|        9340|  6.8076e+00|  3.8817e-09|  7.6103e-01|  5.0000e-01|  5.0000e-01|  5.0000e-01|   -6.837079|   -6.962454|   -7.445682|   -7.128533|   -7.108496|   -9.001499|    1.758623|
|        9341|  6.8075e+00|  3.8817e-09|  7.6103e-01|  5.0000e-01|  5.0000e-01|  5.0000e-01|   -6.837220|   -6.962565|   -7.445574|   -7.128757|   -7.108601|   -9.001232|    1.758625|
|        9342|  6.8075e+00|  3.8817e-09|  7.6103e-01|  5.0000e-01|  5.0000e-01|  5.0000e-01|   -6.837357|   -6.962673|   -7.445463|   -7.128978|   -7.108703|   -9.000967|    1.758628|
|        9343|  6.8074e+00|  3.8816e-09|  7.6103e-01|  5.0000e-01|  5.0000e-01|  5.0000e-01|   -6.837491|   -6.962778|   -7.445350|   -7.129194|   -7.108803|   -9.000705|    1.758631|
|        9344|  6.8074e+00|  3.8816e-09|  7.6103e-01|  5.0000e-01|  5.0000e-01|  5.0000e-01|   -6.837623|   -6.962881|   -7.445234|   -7.129407|   -7.108899|   -9.000445|    1.758633|
|        9345|  6.8073e+00|  3.8815e-09|  7.6103e-01|  5.0000e-01|  5.0000e-01|  5.0000e-01|   -6.837751|   -6.962982|   -7.445117|   -7.129615|   -7.108994|   -9.000189|    1.758636|
|        9346|  6.8073e+00|  3.8815e-09|  7.6103e-01|  5.0000e-01|  5.0000e-01|  5.0000e-01|   -6.837876|   -6.963079|   -7.444996|   -7.129819|   -7.109086|   -8.999935|    1.758638|
|        9347|  6.8072e+00|  3.8814e-09|  7.6103e-01|  5.0000e-01|  5.0000e-01|  5.0000e-01|   -6.837998|   -6.963174|   -7.444874|   -7.130020|   -7.109175|   -8.999684|    1.758641|
|        9348|  6.8072e+00|  3.8814e-09|  7.6103e-01|  5.0000e-01|  5.0000e-01|  5.0000e-01|   -6.838117|   -6.963267|   -7.444749|   -7.130216|   -7.109261|   -8.999436|    1.758644|
|        9349|  6.8071e+00|  3.8814e-09|  7.6103e-01|  5.0000e-01|  5.0000e-01|  5.0000e-01|   -6.838232|   -6.963357|   -7.444622|   -7.130407|   -7.109345|   -8.999190|    1.758646|
|        9350|  6.8071e+00|  3.8813e-09|  7.6103e-01|  5.0000e-01|  5.0000e-01|  5.0000e-01|   -6.838344|   -6.963444|   -7.444492|   -7.130595|   -7.109426|   -8.998947|    1.758649|
|        9351|  6.8071e+00|  3.8813e-09|  7.6103e-01|  5.0000e-01|  5.0000e-01|  5.0000e-01|   -6.838453|   -6.963528|   -7.444360|   -7.130778|   -7.109504|   -8.998707|    1.758651|
|        9352|  6.8070e+00|  3.8812e-09|  7.6103e-01|  5.0000e-01|  5.0000e-01|  5.0000e-01|   -6.838559|   -6.963610|   -7.444226|   -7.130957|   -7.109580|   -8.998470|    1.758654|
|        9353|  6.8070e+00|  3.8812e-09|  7.6103e-01|  5.0000e-01|  5.0000e-01|  5.0000e-01|   -6.838661|   -6.963689|   -7.444090|   -7.131131|   -7.109652|   -8.998235|    1.758656|
|        9354|  6.8069e+00|  3.8811e-09|  7.6103e-01|  5.0000e-01|  5.0000e-01|  5.0000e-01|   -6.838760|   -6.963765|   -7.443951|   -7.131301|   -7.109722|   -8.998004|    1.758659|
|        9355|  6.8069e+00|  3.8811e-09|  7.6103e-01|  5.0000e-01|  5.0000e-01|  5.0000e-01|   -6.838855|   -6.963838|   -7.443810|   -7.131466|   -7.109789|   -8.997775|    1.758662|
|        9356|  6.8069e+00|  3.8811e-09|  7.6103e-01|  5.0000e-01|  5.0000e-01|  5.0000e-01|   -6.838947|   -6.963908|   -7.443667|   -7.131627|   -7.109854|   -8.997548|    1.758664|
|        9357|  6.8069e+00|  3.8810e-09|  7.6103e-01|  5.0000e-01|  5.0000e-01|  5.0000e-01|   -6.839036|   -6.963976|   -7.443522|   -7.131783|   -7.109915|   -8.997325|    1.758667|
|        9358|  6.8068e+00|  3.8810e-09|  7.6103e-01|  5.0000e-01|  5.0000e-01|  5.0000e-01|   -6.839121|   -6.964040|   -7.443375|   -7.131935|   -7.109974|   -8.997104|    1.758669|
|        9359|  6.8068e+00|  3.8809e-09|  7.6103e-01|  5.0000e-01|  5.0000e-01|  5.0000e-01|   -6.839202|   -6.964102|   -7.443225|   -7.132081|   -7.110030|   -8.996886|    1.758672|
|        9360|  6.8067e+00|  3.8809e-09|  7.6103e-01|  5.0000e-01|  5.0000e-01|  5.0000e-01|   -6.839280|   -6.964161|   -7.443074|   -7.132224|   -7.110083|   -8.996671|    1.758674|
|        9361|  6.8067e+00|  3.8808e-09|  7.6103e-01|  5.0000e-01|  5.0000e-01|  5.0000e-01|   -6.839355|   -6.964217|   -7.442920|   -7.132361|   -7.110132|   -8.996458|    1.758676|
|        9362|  6.8067e+00|  3.8808e-09|  7.6103e-01|  5.0000e-01|  5.0000e-01|  5.0000e-01|   -6.839426|   -6.964269|   -7.442764|   -7.132494|   -7.110179|   -8.996248|    1.758679|
|        9363|  6.8066e+00|  3.8807e-09|  7.6103e-01|  5.0000e-01|  5.0000e-01|  5.0000e-01|   -6.839493|   -6.964319|   -7.442607|   -7.132622|   -7.110224|   -8.996041|    1.758681|
|        9364|  6.8066e+00|  3.8807e-09|  7.6103e-01|  5.0000e-01|  5.0000e-01|  5.0000e-01|   -6.839556|   -6.964366|   -7.442447|   -7.132745|   -7.110265|   -8.995837|    1.758684|
|        9365|  6.8065e+00|  3.8807e-09|  7.6103e-01|  5.0000e-01|  5.0000e-01|  5.0000e-01|   -6.839616|   -6.964409|   -7.442285|   -7.132863|   -7.110303|   -8.995636|    1.758686|
|        9366|  6.8065e+00|  3.8806e-09|  7.6103e-01|  5.0000e-01|  5.0000e-01|  5.0000e-01|   -6.839673|   -6.964450|   -7.442121|   -7.132976|   -7.110338|   -8.995437|    1.758689|
|        9367|  6.8065e+00|  3.8806e-09|  7.6103e-01|  5.0000e-01|  5.0000e-01|  5.0000e-01|   -6.839725|   -6.964487|   -7.441955|   -7.133084|   -7.110370|   -8.995241|    1.758691|
|        9368|  6.8064e+00|  3.8805e-09|  7.6103e-01|  5.0000e-01|  5.0000e-01|  5.0000e-01|   -6.839774|   -6.964522|   -7.441787|   -7.133187|   -7.110399|   -8.995048|    1.758693|
|        9369|  6.8064e+00|  3.8805e-09|  7.6103e-01|  5.0000e-01|  5.0000e-01|  5.0000e-01|   -6.839819|   -6.964553|   -7.441618|   -7.133285|   -7.110425|   -8.994857|    1.758696|
|        9370|  6.8064e+00|  3.8804e-09|  7.6103e-01|  5.0000e-01|  5.0000e-01|  5.0000e-01|   -6.839860|   -6.964581|   -7.441446|   -7.133378|   -7.110448|   -8.994669|    1.758698|
|        9371|  6.8063e+00|  3.8804e-09|  7.6103e-01|  5.0000e-01|  5.0000e-01|  5.0000e-01|   -6.839897|   -6.964606|   -7.441272|   -7.133466|   -7.110468|   -8.994484|    1.758701|
|        9372|  6.8063e+00|  3.8804e-09|  7.6103e-01|  5.0000e-01|  5.0000e-01|  5.0000e-01|   -6.839931|   -6.964627|   -7.441096|   -7.133549|   -7.110485|   -8.994302|    1.758703|
|        9373|  6.8063e+00|  3.8803e-09|  7.6103e-01|  5.0000e-01|  5.0000e-01|  5.0000e-01|   -6.839960|   -6.964645|   -7.440919|   -7.133626|   -7.110498|   -8.994123|    1.758705|
|        9374|  6.8063e+00|  3.8803e-09|  7.6103e-01|  5.0000e-01|  5.0000e-01|  5.0000e-01|   -6.839986|   -6.964661|   -7.440740|   -7.133698|   -7.110509|   -8.993946|    1.758708|
|        9375|  6.8062e+00|  3.8802e-09|  7.6103e-01|  5.0000e-01|  5.0000e-01|  5.0000e-01|   -6.840008|   -6.964672|   -7.440558|   -7.133765|   -7.110516|   -8.993772|    1.758710|
|        9376|  6.8062e+00|  3.8802e-09|  7.6103e-01|  5.0000e-01|  5.0000e-01|  5.0000e-01|   -6.840026|   -6.964681|   -7.440375|   -7.133827|   -7.110520|   -8.993601|    1.758712|
|        9377|  6.8062e+00|  3.8801e-09|  7.6103e-01|  5.0000e-01|  5.0000e-01|  5.0000e-01|   -6.840040|   -6.964686|   -7.440190|   -7.133884|   -7.110521|   -8.993432|    1.758715|
|        9378|  6.8061e+00|  3.8801e-09|  7.6103e-01|  5.0000e-01|  5.0000e-01|  5.0000e-01|   -6.840049|   -6.964688|   -7.440004|   -7.133935|   -7.110519|   -8.993266|    1.758717|
|        9379|  6.8061e+00|  3.8801e-09|  7.6103e-01|  5.0000e-01|  5.0000e-01|  5.0000e-01|   -6.840055|   -6.964686|   -7.439815|   -7.133980|   -7.110513|   -8.993103|    1.758719|
|        9380|  6.8060e+00|  3.8800e-09|  7.6103e-01|  5.0000e-01|  5.0000e-01|  5.0000e-01|   -6.840057|   -6.964681|   -7.439625|   -7.134021|   -7.110504|   -8.992943|    1.758722|
|        9381|  6.8060e+00|  3.8800e-09|  7.6103e-01|  5.0000e-01|  5.0000e-01|  5.0000e-01|   -6.840055|   -6.964673|   -7.439433|   -7.134056|   -7.110492|   -8.992786|    1.758724|
|        9382|  6.8059e+00|  3.8799e-09|  7.6103e-01|  5.0000e-01|  5.0000e-01|  5.0000e-01|   -6.840049|   -6.964661|   -7.439239|   -7.134085|   -7.110477|   -8.992631|    1.758726|
|        9383|  6.8059e+00|  3.8799e-09|  7.6103e-01|  5.0000e-01|  5.0000e-01|  5.0000e-01|   -6.840038|   -6.964646|   -7.439044|   -7.134109|   -7.110458|   -8.992479|    1.758728|
|        9384|  6.8059e+00|  3.8798e-09|  7.6103e-01|  5.0000e-01|  5.0000e-01|  5.0000e-01|   -6.840024|   -6.964627|   -7.438847|   -7.134127|   -7.110436|   -8.992329|    1.758731|
|        9385|  6.8059e+00|  3.8798e-09|  7.6103e-01|  5.0000e-01|  5.0000e-01|  5.0000e-01|   -6.840005|   -6.964605|   -7.438648|   -7.134139|   -7.110411|   -8.992183|    1.758733|
|        9386|  6.8058e+00|  3.8798e-09|  7.6103e-01|  5.0000e-01|  5.0000e-01|  5.0000e-01|   -6.839982|   -6.964579|   -7.438447|   -7.134146|   -7.110382|   -8.992039|    1.758735|
|        9387|  6.8058e+00|  3.8797e-09|  7.6103e-01|  5.0000e-01|  5.0000e-01|  5.0000e-01|   -6.839955|   -6.964550|   -7.438245|   -7.134148|   -7.110350|   -8.991898|    1.758737|
|        9388|  6.8058e+00|  3.8797e-09|  7.6103e-01|  5.0000e-01|  5.0000e-01|  5.0000e-01|   -6.839924|   -6.964517|   -7.438041|   -7.134144|   -7.110315|   -8.991759|    1.758739|
|        9389|  6.8057e+00|  3.8796e-09|  7.6103e-01|  5.0000e-01|  5.0000e-01|  5.0000e-01|   -6.839888|   -6.964481|   -7.437836|   -7.134134|   -7.110276|   -8.991623|    1.758742|
|        9390|  6.8057e+00|  3.8796e-09|  7.6103e-01|  5.0000e-01|  5.0000e-01|  5.0000e-01|   -6.839849|   -6.964441|   -7.437629|   -7.134119|   -7.110234|   -8.991490|    1.758744|
|        9391|  6.8056e+00|  3.8795e-09|  7.6103e-01|  5.0000e-01|  5.0000e-01|  5.0000e-01|   -6.839805|   -6.964397|   -7.437421|   -7.134098|   -7.110189|   -8.991360|    1.758746|
|        9392|  6.8056e+00|  3.8795e-09|  7.6103e-01|  5.0000e-01|  5.0000e-01|  5.0000e-01|   -6.839757|   -6.964350|   -7.437212|   -7.134072|   -7.110140|   -8.991232|    1.758748|
|        9393|  6.8055e+00|  3.8795e-09|  7.6103e-01|  5.0000e-01|  5.0000e-01|  5.0000e-01|   -6.839705|   -6.964300|   -7.437000|   -7.134039|   -7.110088|   -8.991107|    1.758750|
|        9394|  6.8055e+00|  3.8794e-09|  7.6103e-01|  5.0000e-01|  5.0000e-01|  5.0000e-01|   -6.839648|   -6.964245|   -7.436788|   -7.134001|   -7.110032|   -8.990985|    1.758752|
|        9395|  6.8055e+00|  3.8794e-09|  7.6103e-01|  5.0000e-01|  5.0000e-01|  5.0000e-01|   -6.839588|   -6.964187|   -7.436574|   -7.133957|   -7.109973|   -8.990866|    1.758755|
|        9396|  6.8054e+00|  3.8793e-09|  7.6103e-01|  5.0000e-01|  5.0000e-01|  5.0000e-01|   -6.839523|   -6.964126|   -7.436358|   -7.133908|   -7.109911|   -8.990749|    1.758757|
|        9397|  6.8054e+00|  3.8793e-09|  7.6103e-01|  5.0000e-01|  5.0000e-01|  5.0000e-01|   -6.839453|   -6.964061|   -7.436141|   -7.133852|   -7.109845|   -8.990635|    1.758759|
|        9398|  6.8054e+00|  3.8792e-09|  7.6103e-01|  5.0000e-01|  5.0000e-01|  5.0000e-01|   -6.839380|   -6.963992|   -7.435923|   -7.133791|   -7.109776|   -8.990524|    1.758761|
|        9399|  6.8053e+00|  3.8792e-09|  7.6103e-01|  5.0000e-01|  5.0000e-01|  5.0000e-01|   -6.839302|   -6.963920|   -7.435704|   -7.133725|   -7.109703|   -8.990415|    1.758763|
|        9400|  6.8053e+00|  3.8792e-09|  7.6103e-01|  5.0000e-01|  5.0000e-01|  5.0000e-01|   -6.839220|   -6.963843|   -7.435483|   -7.133652|   -7.109627|   -8.990309|    1.758765|
|        9401|  6.8053e+00|  3.8791e-09|  7.6103e-01|  5.0000e-01|  5.0000e-01|  5.0000e-01|   -6.839134|   -6.963764|   -7.435261|   -7.133574|   -7.109548|   -8.990205|    1.758767|
|        9402|  6.8052e+00|  3.8791e-09|  7.6103e-01|  5.0000e-01|  5.0000e-01|  5.0000e-01|   -6.839044|   -6.963680|   -7.435037|   -7.133491|   -7.109465|   -8.990105|    1.758769|
|        9403|  6.8052e+00|  3.8790e-09|  7.6103e-01|  5.0000e-01|  5.0000e-01|  5.0000e-01|   -6.838949|   -6.963593|   -7.434813|   -7.133401|   -7.109379|   -8.990007|    1.758771|
|        9404|  6.8051e+00|  3.8790e-09|  7.6103e-01|  5.0000e-01|  5.0000e-01|  5.0000e-01|   -6.838850|   -6.963502|   -7.434587|   -7.133306|   -7.109290|   -8.989912|    1.758773|
|        9405|  6.8051e+00|  3.8789e-09|  7.6103e-01|  5.0000e-01|  5.0000e-01|  5.0000e-01|   -6.838747|   -6.963408|   -7.434361|   -7.133205|   -7.109197|   -8.989819|    1.758775|
|        9406|  6.8051e+00|  3.8789e-09|  7.6103e-01|  5.0000e-01|  5.0000e-01|  5.0000e-01|   -6.838639|   -6.963309|   -7.434133|   -7.133098|   -7.109100|   -8.989729|    1.758777|
|        9407|  6.8051e+00|  3.8789e-09|  7.6103e-01|  5.0000e-01|  5.0000e-01|  5.0000e-01|   -6.838527|   -6.963207|   -7.433904|   -7.132986|   -7.109001|   -8.989642|    1.758779|
|        9408|  6.8050e+00|  3.8788e-09|  7.6103e-01|  5.0000e-01|  5.0000e-01|  5.0000e-01|   -6.838411|   -6.963102|   -7.433674|   -7.132868|   -7.108898|   -8.989557|    1.758781|
|        9409|  6.8050e+00|  3.8788e-09|  7.6103e-01|  5.0000e-01|  5.0000e-01|  5.0000e-01|   -6.838291|   -6.962992|   -7.433442|   -7.132744|   -7.108791|   -8.989475|    1.758783|
|        9410|  6.8049e+00|  3.8787e-09|  7.6103e-01|  5.0000e-01|  5.0000e-01|  5.0000e-01|   -6.838166|   -6.962879|   -7.433210|   -7.132614|   -7.108681|   -8.989396|    1.758785|
|        9411|  6.8049e+00|  3.8787e-09|  7.6103e-01|  5.0000e-01|  5.0000e-01|  5.0000e-01|   -6.838037|   -6.962762|   -7.432976|   -7.132479|   -7.108568|   -8.989319|    1.758787|
|        9412|  6.8049e+00|  3.8786e-09|  7.6103e-01|  5.0000e-01|  5.0000e-01|  5.0000e-01|   -6.837904|   -6.962641|   -7.432742|   -7.132338|   -7.108451|   -8.989245|    1.758789|
|        9413|  6.8048e+00|  3.8786e-09|  7.6103e-01|  5.0000e-01|  5.0000e-01|  5.0000e-01|   -6.837767|   -6.962517|   -7.432507|   -7.132191|   -7.108331|   -8.989174|    1.758791|
|        9414|  6.8048e+00|  3.8786e-09|  7.6103e-01|  5.0000e-01|  5.0000e-01|  5.0000e-01|   -6.837625|   -6.962388|   -7.432270|   -7.132038|   -7.108207|   -8.989105|    1.758793|
|        9415|  6.8047e+00|  3.8785e-09|  7.6103e-01|  5.0000e-01|  5.0000e-01|  5.0000e-01|   -6.837479|   -6.962257|   -7.432033|   -7.131880|   -7.108080|   -8.989039|    1.758795|
|        9416|  6.8047e+00|  3.8785e-09|  7.6103e-01|  5.0000e-01|  5.0000e-01|  5.0000e-01|   -6.837329|   -6.962121|   -7.431795|   -7.131716|   -7.107950|   -8.988975|    1.758796|
|        9417|  6.8046e+00|  3.8784e-09|  7.6103e-01|  5.0000e-01|  5.0000e-01|  5.0000e-01|   -6.837174|   -6.961982|   -7.431556|   -7.131547|   -7.107816|   -8.988914|    1.758798|
|        9418|  6.8046e+00|  3.8784e-09|  7.6103e-01|  5.0000e-01|  5.0000e-01|  5.0000e-01|   -6.837015|   -6.961838|   -7.431317|   -7.131371|   -7.107679|   -8.988856|    1.758800|
|        9419|  6.8045e+00|  3.8783e-09|  7.6103e-01|  5.0000e-01|  5.0000e-01|  5.0000e-01|   -6.836852|   -6.961692|   -7.431076|   -7.131190|   -7.107538|   -8.988801|    1.758802|
|        9420|  6.8045e+00|  3.8783e-09|  7.6103e-01|  5.0000e-01|  5.0000e-01|  5.0000e-01|   -6.836685|   -6.961541|   -7.430834|   -7.131004|   -7.107394|   -8.988748|    1.758804|
|        9421|  6.8044e+00|  3.8783e-09|  7.6103e-01|  5.0000e-01|  5.0000e-01|  5.0000e-01|   -6.836513|   -6.961387|   -7.430591|   -7.130811|   -7.107246|   -8.988697|    1.758806|
|        9422|  6.8044e+00|  3.8782e-09|  7.6103e-01|  5.0000e-01|  5.0000e-01|  5.0000e-01|   -6.836337|   -6.961228|   -7.430348|   -7.130613|   -7.107095|   -8.988649|    1.758808|
|        9423|  6.8044e+00|  3.8782e-09|  7.6103e-01|  5.0000e-01|  5.0000e-01|  5.0000e-01|   -6.836157|   -6.961067|   -7.430103|   -7.130409|   -7.106941|   -8.988604|    1.758809|
|        9424|  6.8043e+00|  3.8781e-09|  7.6103e-01|  5.0000e-01|  5.0000e-01|  5.0000e-01|   -6.835972|   -6.960901|   -7.429859|   -7.130200|   -7.106783|   -8.988562|    1.758811|
|        9425|  6.8043e+00|  3.8781e-09|  7.6103e-01|  5.0000e-01|  5.0000e-01|  5.0000e-01|   -6.835784|   -6.960732|   -7.429613|   -7.129985|   -7.106622|   -8.988522|    1.758813|
|        9426|  6.8042e+00|  3.8780e-09|  7.6103e-01|  5.0000e-01|  5.0000e-01|  5.0000e-01|   -6.835591|   -6.960559|   -7.429367|   -7.129764|   -7.106458|   -8.988484|    1.758815|
|        9427|  6.8042e+00|  3.8780e-09|  7.6103e-01|  5.0000e-01|  5.0000e-01|  5.0000e-01|   -6.835394|   -6.960382|   -7.429121|   -7.129538|   -7.106290|   -8.988449|    1.758816|
|        9428|  6.8041e+00|  3.8780e-09|  7.6103e-01|  5.0000e-01|  5.0000e-01|  5.0000e-01|   -6.835193|   -6.960202|   -7.428874|   -7.129306|   -7.106119|   -8.988417|    1.758818|
|        9429|  6.8041e+00|  3.8779e-09|  7.6103e-01|  5.0000e-01|  5.0000e-01|  5.0000e-01|   -6.834987|   -6.960018|   -7.428626|   -7.129069|   -7.105945|   -8.988388|    1.758820|
|        9430|  6.8041e+00|  3.8779e-09|  7.6103e-01|  5.0000e-01|  5.0000e-01|  5.0000e-01|   -6.834778|   -6.959830|   -7.428378|   -7.128826|   -7.105768|   -8.988360|    1.758822|

scontrol show job 1128943
JobId=1128943 JobName=m6_aoa32
   UserId=anthonyy(3152141) GroupId=anthonyy(3152141) MCS_label=N/A
   Priority=732253 Nice=0 Account=rrg-jphickey QOS=normal
   JobState=COMPLETING Reason=TimeLimit Dependency=(null)
   Requeue=0 Restarts=0 BatchFlag=1 Reboot=0 ExitCode=0:15
   RunTime=18:00:06 TimeLimit=18:00:00 TimeMin=N/A
   SubmitTime=2026-03-06T01:59:46 EligibleTime=2026-03-06T01:59:46
   AccrueTime=2026-03-06T01:59:46
   StartTime=2026-03-06T02:46:05 EndTime=2026-03-06T20:46:11 Deadline=N/A
   SuspendTime=None SecsPreSuspend=0 LastSchedEval=2026-03-06T02:46:05 Scheduler=Main
   Partition=compute AllocNode:Sid=tri-login05:2615333
   ReqNodeList=(null) ExcNodeList=(null)
   NodeList=tri[0359,0414]
   BatchHost=tri0359
   NumNodes=2 NumCPUs=384 NumTasks=128 CPUs/Task=1 ReqB:S:C:T=0:0:*:*
   ReqTRES=cpu=128,mem=1534000M,node=2,billing=128
   AllocTRES=cpu=384,mem=1534000M,node=2,billing=384
   Socks/Node=* NtasksPerN:B:S:C=64:0:*:* CoreSpec=*
   MinCPUsNode=64 MinMemoryNode=767000M MinTmpDiskNode=0
   Features=(null) DelayBoot=00:00:00
   OverSubscribe=NO Contiguous=0 Licenses=(null) Network=(null)
   Command=/scratch/anthonyy/reentry/orion/cases/m6_aoa32/run.sh
   WorkDir=/scratch/anthonyy/reentry/orion/cases/m6_aoa32
   Comment=/opt/slurm/bin/sbatch --export=NONE --get-user-env=L run.sh 
   StdErr=/scratch/anthonyy/reentry/orion/cases/m6_aoa32/orion_1128943.err
   StdIn=/dev/null
   StdOut=/scratch/anthonyy/reentry/orion/cases/m6_aoa32/orion_1128943.out
   TresPerTask=cpu=1
   

sacct -j 1128943
JobID           JobName    Account    Elapsed  MaxVMSize     MaxRSS  SystemCPU    UserCPU ExitCode 
------------ ---------- ---------- ---------- ---------- ---------- ---------- ---------- -------- 
1128943        m6_aoa32 rrg-jphic+   18:00:06                         15:55:19 94-11:55:+      0:0 
1128943.bat+      batch rrg-jphic+   18:00:07          0      8776K  00:00.128  00:00.600     0:15 
1128943.ext+     extern rrg-jphic+   18:00:06                         00:00:00   00:00:00      0:0 
1128943.0       SU2_CFD rrg-jphic+   18:00:06          0  10684564K   15:55:19 94-11:55:+     0:15 

