Nodes: tri[1086,1119]
Tasks: 128
NPN:   64

-------------------------------------------------------------------------
|    ___ _   _ ___                                                      |
|   / __| | | |_  )   Release 7.5.1 "Blackbird"                         |
|   \__ \ |_| |/ /                                                      |
|   |___/\___//___|   Suite (Computational Fluid Dynamics Code)         |
|                                                                       |
-------------------------------------------------------------------------
| SU2 Project Website: https://su2code.github.io                        |
|                                                                       |
| The SU2 Project is maintained by the SU2 Foundation                   |
| (http://su2foundation.org)                                            |
-------------------------------------------------------------------------
| Copyright 2012-2023, SU2 Contributors                                 |
|                                                                       |
| SU2 is free software; you can redistribute it and/or                  |
| modify it under the terms of the GNU Lesser General Public            |
| License as published by the Free Software Foundation; either          |
| version 2.1 of the License, or (at your option) any later version.    |
|                                                                       |
| SU2 is distributed in the hope that it will be useful,                |
| but WITHOUT ANY WARRANTY; without even the implied warranty of        |
| MERCHANTABILITY or FITNESS FOR A PARTICULAR PURPOSE. See the GNU      |
| Lesser General Public License for more details.                       |
|                                                                       |
| You should have received a copy of the GNU Lesser General Public      |
| License along with SU2. If not, see <http://www.gnu.org/licenses/>.   |
-------------------------------------------------------------------------

Parsing config file for zone 0

----------------- Physical Case Definition ( Zone 0 ) -------------------
Compressible RANS equations.
Turbulence model: Spalart-Allmaras-noft2
Hybrid RANS/LES: No Hybrid RANS/LES
Mach number: 6.
Angle of attack (AoA): 32 deg, and angle of sideslip (AoS): 0 deg.
Reynolds number: 6.86229e+08. Reference length 5.
Reading and writing binary SU2 native restart files.
Read flow solution from: restart_flow.dat.
Non-Dimensional simulation (V=1.0, Rho=1.0, T=1.0 at the farfield).
The reference area will be computed using y(2D) or z(3D) projection.
The semi-span will be computed using the max y(3D) value.
The reference length is 0.64607 m.
Reference origin for moment evaluation is (0.25, 0, 0).
Surface(s) where the force coefficients are evaluated: ORION_SURFACE.

Input mesh file name: fine.su2

--------------- Space Numerical Integration ( Zone 0 ) ------------------
Jameson-Schmidt-Turkel scheme (2nd order in space) for the flow inviscid terms.
JST viscous coefficients (2nd & 4th): 0.5, 0.02.
The method includes a grid stretching correction (p = 0.3).
Scalar upwind solver for the turbulence model.
First order integration in space.
Average of gradients with correction (viscous flow terms).
Average of gradients with correction (viscous turbulence terms).
Gradient for upwind reconstruction: Green-Gauss.
Gradient for viscous and source terms: Green-Gauss.

--------------- Time Numerical Integration  ( Zone 0 ) ------------------
Local time stepping (steady state simulation).
Euler implicit method for the flow equations.
FGMRES is used for solving the linear system.
Using a ILU(0) preconditioning.
Convergence criteria of the linear solver: 1e-06.
Max number of linear iterations: 100.
CFL adaptation. Factor down: 0.5, factor up: 1.1,
                lower limit: 0.05, upper limit: 0.5,
                acceptable linear residual: 0.001.
Courant-Friedrichs-Lewy number:     0.03
Euler implicit time integration for the turbulence model.

------------------ Convergence Criteria  ( Zone 0 ) ---------------------
Maximum number of solver subiterations: 999999.
Begin convergence monitoring at iteration 5.
Residual minimum value: 1e-8.
Cauchy series min. value: 1e-10.
Number of Cauchy elements: 100.
Begin windowed time average at iteration 0.

-------------------- Output Information ( Zone 0 ) ----------------------
File writing frequency: 
+------------------------------------+
|                     File| Frequency|
+------------------------------------+
|                  RESTART|       150|
|                 PARAVIEW|       150|
|         SURFACE_PARAVIEW|       150|
+------------------------------------+
Writing the convergence history file every 1 inner iterations.
Writing the screen convergence history every 1 inner iterations.
The tabular file format is CSV (.csv).
Convergence history file name: history.
Forces breakdown file name: forces_breakdown.dat.
Surface file name: surface_flow.
Volume file name: flow.
Restart file name: restart_flow.

------------- Config File Boundary Information ( Zone 0 ) ---------------
+-----------------------------------------------------------------------+
|                        Marker Type|                        Marker Name|
+-----------------------------------------------------------------------+
|                          Far-field|                           FARFIELD|
+-----------------------------------------------------------------------+
|                     Heat flux wall|                      ORION_SURFACE|
+-----------------------------------------------------------------------+

-------------------- Output Preprocessing ( Zone 0 ) --------------------

WARNING: SURFACE_PRESSURE_DROP can only be computed for at least 2 surfaces (outlet, inlet, ...)

Screen output fields: INNER_ITER, WALL_TIME, MIN_DELTA_TIME, MAX_DELTA_TIME, MIN_CFL, MAX_CFL, AVG_CFL, RMS_DENSITY, RMS_MOMENTUM-X, RMS_MOMENTUM-Y, RMS_MOMENTUM-Z, RMS_ENERGY, RMS_NU_TILDE, DRAG
History output group(s): ITER, RMS_RES
Convergence field(s): RMS_DENSITY
Warning: No (valid) fields chosen for time convergence monitoring. Time convergence monitoring inactive.
Volume output fields: MACH, PRESSURE, TEMPERATURE, DENSITY, HEAT_FLUX, Y_PLUS, COORDINATES, SOLUTION

------------------- Geometry Preprocessing ( Zone 0 ) -------------------
Three dimensional problem.
62211324 grid points before partitioning.
190879888 volume elements before partitioning.
2 surface markers.
4104 boundary elements in index 0 (Marker = FARFIELD).
1824836 boundary elements in index 1 (Marker = ORION_SURFACE).
Executing the partitioning functions.
Building the graph adjacency structure.
Calling ParMETIS... graph partitioning complete (4959327 edge cuts).
Distributing ParMETIS coloring.
Rebalancing vertices.
Rebalancing volume element connectivity.
Rebalancing markers and surface elements.
66952290 vertices including ghost points. 
197997438 interior elements including halo cells. 
103171259 tetrahedra.
94500655 prisms.
325524 pyramids.
Establishing MPI communication patterns.
Setting point connectivity.
Renumbering points (Reverse Cuthill McKee Ordering).
Recomputing point connectivity.
Setting element connectivity.
Checking the numerical grid orientation.
All volume elements are correctly orientend.
All surface elements are correctly orientend.
Identifying edges and vertices.
Setting the control volume structure.
Volume of the computational grid: 535693.
Searching for the closest normal neighbors to the surfaces.
Storing a mapping from global to local point index.
Compute the surface curvature.
Max K: 132.896. Mean K: 3.9104. Standard deviation K: 7.49569.
Checking for periodicity.
Computing mesh quality statistics for the dual control volumes.
+--------------------------------------------------------------+
|           Mesh Quality Metric|        Minimum|        Maximum|
+--------------------------------------------------------------+
|    Orthogonality Angle (deg.)|        53.0661|             90|
|     CV Face Area Aspect Ratio|        1.01143|        75298.5|
|           CV Sub-Volume Ratio|        1.00029|        45.0258|
+--------------------------------------------------------------+
Finding max control volume width.
Communicating number of neighbors.
Reference area = 11.531 m^2.
Semi-span length = 2.49999 m.
Wetted area = 57.9072 m^2.
Area projection in the x-plane = 19.6343 m^2, y-plane = 11.531 m^2, z-plane = 11.531 m^2.
Max. coordinate in the x-direction = 2.575 m, y-direction = 2.49999 m, z-direction = 2.49999 m.
Min. coordinate in the x-direction = -0.71 m, y-direction = -2.49999 m, z-direction = -2.5 m.
Computing wall distances.

-------------------- Solver Preprocessing ( Zone 0 ) --------------------
Viscous flow: Computing pressure using the ideal gas law
based on the free-stream temperature and a density computed
from the Reynolds number.
Force coefficients computed using free-stream values.

-- Models:
+------------------------------------------------------------------------------+
|          Viscosity Model|        Conductivity Model|              Fluid Model|
+------------------------------------------------------------------------------+
|               SUTHERLAND|          CONSTANT_PRANDTL|             STANDARD_AIR|
+------------------------------------------------------------------------------+
-- Fluid properties:
+------------------------------------------------------------------------------+
|                  Name|    Dim. value|    Ref. value|      Unit|Non-dim. value|
+------------------------------------------------------------------------------+
|        Ref. Viscosity|     1.716e-05|       2455.73|   N.s/m^2|   6.98773e-09|
|      Sutherland Temp.|        273.15|        288.15|         K|      0.947944|
|     Sutherland Const.|         110.4|        288.15|         K|      0.383134|
+------------------------------------------------------------------------------+
|        Prandtl (Lam.)|             -|             -|         -|          0.72|
|       Prandtl (Turb.)|             -|             -|         -|           0.9|
+------------------------------------------------------------------------------+
|          Gas Constant|       287.058|       14467.7|  N.m/kg.K|     0.0198413|
|      Spec. Heat Ratio|             -|             -|         -|           1.4|
+------------------------------------------------------------------------------+
-- Initial and free-stream conditions:
+------------------------------------------------------------------------------+
|                  Name|    Dim. value|    Ref. value|      Unit|Non-dim. value|
+------------------------------------------------------------------------------+
|       Static Pressure|       99485.6|   5.01407e+06|        Pa|     0.0198413|
|               Density|       1.20274|       1.20274|    kg/m^3|             1|
|           Temperature|        288.15|        288.15|         K|             1|
|          Total Energy|   2.29123e+06|   4.16887e+06|   m^2/s^2|      0.549603|
|            Velocity-X|       1731.53|       2041.78|       m/s|      0.848048|
|            Velocity-Y|             0|       2041.78|       m/s|             0|
|            Velocity-Z|       1081.98|       2041.78|       m/s|      0.529919|
|    Velocity Magnitude|       2041.78|       2041.78|       m/s|             1|
+------------------------------------------------------------------------------+
|             Viscosity|    1.7893e-05|       2455.73|   N.s/m^2|    7.2862e-09|
|          Conductivity|             -|   3.55289e+07|   W/m^2.K|             -|
|     Turb. Kin. Energy|       15633.3|   4.16887e+06|   m^2/s^2|       0.00375|
|     Spec. Dissipation|   1.05085e+08|       2041.78|       1/s|       51467.1|
+------------------------------------------------------------------------------+
|           Mach Number|             -|             -|         -|             6|
|       Reynolds Number|             -|             -|         -|   6.86229e+08|
+------------------------------------------------------------------------------+
Initialize Jacobian structure (Navier-Stokes). MG level: 0.
Initialize Jacobian structure (SA model).

------------------- Numerics Preprocessing ( Zone 0 ) -------------------

----------------- Integration Preprocessing ( Zone 0 ) ------------------

------------------- Iteration Preprocessing ( Zone 0 ) ------------------
Euler/Navier-Stokes/RANS fluid iteration.

------------------------------ Begin Solver -----------------------------

Simulation Run using the Single-zone Driver
WARNING: SU2 was not compiled for an AVX-capable architecture. Performance could be better,
         see https://su2code.github.io/docs_v7/Build-SU2-Linux-MacOS/#compiler-optimizations
+-------------------------------------------------------------------------------------------------------------------------------------------------------------------------------------+
|  Inner_Iter|   Time(sec)|      Min DT|      Max DT|     Min CFL|     Max CFL|     Avg CFL|    rms[Rho]|   rms[RhoU]|   rms[RhoV]|   rms[RhoW]|   rms[RhoE]|     rms[nu]|          CD|
+-------------------------------------------------------------------------------------------------------------------------------------------------------------------------------------+
|           0|  1.2049e+01|  1.9256e-10|  4.5662e-02|  5.0000e-02|  5.0000e-02|  5.0000e-02|   -7.762926|   -7.885249|   -8.401815|   -8.036373|   -8.031124|  -10.058120|    1.757948|
|           1|  9.6520e+00|  3.2093e-10|  7.6103e-02|  5.5000e-02|  5.5000e-02|  5.5000e-02|   -7.762981|   -7.885297|   -8.401887|   -8.036420|   -8.031193|  -10.058112|    1.757948|
|           2|  8.8423e+00|  3.5302e-10|  8.3713e-02|  6.0500e-02|  6.0500e-02|  6.0500e-02|   -7.763071|   -7.885374|   -8.402001|   -8.036496|   -8.031304|  -10.058121|    1.757948|
|           3|  8.5096e+00|  3.8832e-10|  9.2084e-02|  6.6550e-02|  6.6550e-02|  6.6550e-02|   -7.763168|   -7.885460|   -8.402125|   -8.036578|   -8.031424|  -10.058132|    1.757949|
|           4|  8.2668e+00|  4.2715e-10|  1.0129e-01|  7.3205e-02|  7.3205e-02|  7.3205e-02|   -7.763274|   -7.885553|   -8.402259|   -8.036669|   -8.031555|  -10.058143|    1.757949|
|           5|  8.1017e+00|  4.6987e-10|  1.1142e-01|  8.0526e-02|  8.0526e-02|  8.0526e-02|   -7.763390|   -7.885655|   -8.402403|   -8.036767|   -8.031697|  -10.058155|    1.757949|
|           6|  7.9647e+00|  5.1685e-10|  1.2256e-01|  8.8578e-02|  8.8578e-02|  8.8578e-02|   -7.763516|   -7.885767|   -8.402557|   -8.036874|   -8.031851|  -10.058169|    1.757949|
|           7|  7.8457e+00|  5.6854e-10|  1.3482e-01|  9.7436e-02|  9.7436e-02|  9.7436e-02|   -7.763653|   -7.885890|   -8.402723|   -8.036990|   -8.032018|  -10.058183|    1.757949|
|           8|  7.7873e+00|  6.2539e-10|  1.4830e-01|  1.0718e-01|  1.0718e-01|  1.0718e-01|   -7.763801|   -7.886024|   -8.402900|   -8.037116|   -8.032198|  -10.058200|    1.757949|
|           9|  7.7255e+00|  6.8793e-10|  1.6313e-01|  1.1790e-01|  1.1790e-01|  1.1790e-01|   -7.763963|   -7.886171|   -8.403089|   -8.037253|   -8.032392|  -10.058218|    1.757949|
|          10|  7.6726e+00|  7.5672e-10|  1.7945e-01|  1.2969e-01|  1.2969e-01|  1.2969e-01|   -7.764138|   -7.886331|   -8.403290|   -8.037401|   -8.032602|  -10.058238|    1.757949|
|          11|  7.6293e+00|  8.3239e-10|  1.9739e-01|  1.4266e-01|  1.4266e-01|  1.4266e-01|   -7.764327|   -7.886506|   -8.403503|   -8.037562|   -8.032827|  -10.058259|    1.757949|
|          12|  7.6564e+00|  9.1562e-10|  2.1713e-01|  1.5692e-01|  1.5692e-01|  1.5692e-01|   -7.764531|   -7.886697|   -8.403727|   -8.037736|   -8.033068|  -10.058283|    1.757949|
|          13|  7.6663e+00|  1.0072e-09|  2.3884e-01|  1.7261e-01|  1.7261e-01|  1.7261e-01|   -7.764752|   -7.886904|   -8.403962|   -8.037923|   -8.033326|  -10.058310|    1.757949|
|          14|  7.6768e+00|  1.1079e-09|  2.6273e-01|  1.8987e-01|  1.8987e-01|  1.8987e-01|   -7.764990|   -7.887130|   -8.404208|   -8.038124|   -8.033602|  -10.058339|    1.757949|
|          15|  7.6831e+00|  1.2187e-09|  2.8900e-01|  2.0886e-01|  2.0886e-01|  2.0886e-01|   -7.765245|   -7.887375|   -8.404463|   -8.038340|   -8.033894|  -10.058370|    1.757950|
|          16|  7.6842e+00|  1.3405e-09|  3.1790e-01|  2.2975e-01|  2.2975e-01|  2.2975e-01|   -7.765518|   -7.887641|   -8.404726|   -8.038571|   -8.034204|  -10.058406|    1.757950|
|          17|  7.6863e+00|  1.4746e-09|  3.4969e-01|  2.5272e-01|  2.5272e-01|  2.5272e-01|   -7.765810|   -7.887928|   -8.404995|   -8.038817|   -8.034530|  -10.058444|    1.757950|
|          18|  7.6833e+00|  1.6221e-09|  3.8466e-01|  2.7800e-01|  2.7800e-01|  2.7800e-01|   -7.766121|   -7.888237|   -8.405267|   -8.039078|   -8.034871|  -10.058487|    1.757950|
|          19|  7.6837e+00|  1.7842e-09|  4.2313e-01|  3.0580e-01|  3.0580e-01|  3.0580e-01|   -7.766450|   -7.888569|   -8.405540|   -8.039354|   -8.035226|  -10.058534|    1.757950|
|          20|  7.6805e+00|  1.9627e-09|  4.6544e-01|  3.3637e-01|  3.3637e-01|  3.3637e-01|   -7.766798|   -7.888923|   -8.405809|   -8.039644|   -8.035591|  -10.058585|    1.757951|
|          21|  7.7126e+00|  2.1589e-09|  5.1198e-01|  3.7001e-01|  3.7001e-01|  3.7001e-01|   -7.767162|   -7.889301|   -8.406071|   -8.039946|   -8.035964|  -10.058642|    1.757951|
|          22|  7.7401e+00|  2.3748e-09|  5.6318e-01|  4.0701e-01|  4.0701e-01|  4.0701e-01|   -7.767540|   -7.889700|   -8.406319|   -8.040258|   -8.036339|  -10.058705|    1.757951|
|          23|  7.7631e+00|  2.6123e-09|  6.1950e-01|  4.4772e-01|  4.4772e-01|  4.4772e-01|   -7.767930|   -7.890118|   -8.406547|   -8.040576|   -8.036710|  -10.058775|    1.757951|
|          24|  7.7820e+00|  2.8735e-09|  6.8145e-01|  4.9249e-01|  4.9249e-01|  4.9249e-01|   -7.768327|   -7.890553|   -8.406749|   -8.040896|   -8.037067|  -10.058852|    1.757952|
|          25|  7.8158e+00|  3.1608e-09|  7.4959e-01|  5.0000e-01|  5.0000e-01|  5.0000e-01|   -7.768725|   -7.890999|   -8.406914|   -8.041211|   -8.037398|  -10.058937|    1.757952|
|          26|  7.8448e+00|  3.2090e-09|  7.6103e-01|  5.0000e-01|  5.0000e-01|  5.0000e-01|   -7.769115|   -7.891449|   -8.407035|   -8.041512|   -8.037690|  -10.059065|    1.757952|
|          27|  7.8679e+00|  3.2089e-09|  7.6103e-01|  5.0000e-01|  5.0000e-01|  5.0000e-01|   -7.769499|   -7.891892|   -8.407156|   -8.041806|   -8.037967|  -10.059203|    1.757953|
|          28|  7.8862e+00|  3.2089e-09|  7.6103e-01|  5.0000e-01|  5.0000e-01|  5.0000e-01|   -7.769878|   -7.892327|   -8.407289|   -8.042094|   -8.038236|  -10.059341|    1.757953|
|          29|  7.9107e+00|  3.2089e-09|  7.6103e-01|  5.0000e-01|  5.0000e-01|  5.0000e-01|   -7.770252|   -7.892754|   -8.407431|   -8.042378|   -8.038497|  -10.059481|    1.757954|
|          30|  7.9479e+00|  3.2089e-09|  7.6103e-01|  5.0000e-01|  5.0000e-01|  5.0000e-01|   -7.770621|   -7.893175|   -8.407582|   -8.042658|   -8.038751|  -10.059621|    1.757954|
|          31|  7.9727e+00|  3.2088e-09|  7.6103e-01|  5.0000e-01|  5.0000e-01|  5.0000e-01|   -7.770986|   -7.893589|   -8.407743|   -8.042933|   -8.038998|  -10.059761|    1.757954|
|          32|  7.9893e+00|  3.2088e-09|  7.6103e-01|  5.0000e-01|  5.0000e-01|  5.0000e-01|   -7.771346|   -7.893997|   -8.407913|   -8.043204|   -8.039239|  -10.059903|    1.757955|
|          33|  8.0005e+00|  3.2088e-09|  7.6103e-01|  5.0000e-01|  5.0000e-01|  5.0000e-01|   -7.771703|   -7.894400|   -8.408090|   -8.043472|   -8.039474|  -10.060045|    1.757955|
|          34|  8.0103e+00|  3.2087e-09|  7.6103e-01|  5.0000e-01|  5.0000e-01|  5.0000e-01|   -7.772056|   -7.894799|   -8.408275|   -8.043737|   -8.039704|  -10.060188|    1.757955|
|          35|  8.0257e+00|  3.2087e-09|  7.6103e-01|  5.0000e-01|  5.0000e-01|  5.0000e-01|   -7.772405|   -7.895193|   -8.408467|   -8.044000|   -8.039930|  -10.060332|    1.757956|
|          36|  8.0412e+00|  3.2087e-09|  7.6103e-01|  5.0000e-01|  5.0000e-01|  5.0000e-01|   -7.772752|   -7.895584|   -8.408665|   -8.044261|   -8.040153|  -10.060476|    1.757956|
|          37|  8.0525e+00|  3.2087e-09|  7.6103e-01|  5.0000e-01|  5.0000e-01|  5.0000e-01|   -7.773097|   -7.895972|   -8.408870|   -8.044521|   -8.040372|  -10.060621|    1.757957|
|          38|  8.0628e+00|  3.2086e-09|  7.6103e-01|  5.0000e-01|  5.0000e-01|  5.0000e-01|   -7.773441|   -7.896359|   -8.409080|   -8.044780|   -8.040590|  -10.060766|    1.757957|
|          39|  8.0738e+00|  3.2086e-09|  7.6103e-01|  5.0000e-01|  5.0000e-01|  5.0000e-01|   -7.773783|   -7.896744|   -8.409295|   -8.045039|   -8.040807|  -10.060912|    1.757957|
|          40|  8.0832e+00|  3.2086e-09|  7.6103e-01|  5.0000e-01|  5.0000e-01|  5.0000e-01|   -7.774125|   -7.897129|   -8.409516|   -8.045298|   -8.041024|  -10.061059|    1.757958|
|          41|  8.0960e+00|  3.2085e-09|  7.6103e-01|  5.0000e-01|  5.0000e-01|  5.0000e-01|   -7.774466|   -7.897513|   -8.409741|   -8.045559|   -8.041240|  -10.061207|    1.757958|
|          42|  8.1025e+00|  3.2085e-09|  7.6103e-01|  5.0000e-01|  5.0000e-01|  5.0000e-01|   -7.774808|   -7.897899|   -8.409970|   -8.045822|   -8.041458|  -10.061355|    1.757959|
|          43|  8.1082e+00|  3.2085e-09|  7.6103e-01|  5.0000e-01|  5.0000e-01|  5.0000e-01|   -7.775152|   -7.898286|   -8.410204|   -8.046086|   -8.041678|  -10.061503|    1.757959|
|          44|  8.1152e+00|  3.2085e-09|  7.6103e-01|  5.0000e-01|  5.0000e-01|  5.0000e-01|   -7.775496|   -7.898675|   -8.410440|   -8.046353|   -8.041900|  -10.061652|    1.757959|
|          45|  8.1236e+00|  3.2084e-09|  7.6103e-01|  5.0000e-01|  5.0000e-01|  5.0000e-01|   -7.775843|   -7.899066|   -8.410680|   -8.046624|   -8.042124|  -10.061802|    1.757960|
|          46|  8.1311e+00|  3.2084e-09|  7.6103e-01|  5.0000e-01|  5.0000e-01|  5.0000e-01|   -7.776192|   -7.899460|   -8.410923|   -8.046898|   -8.042353|  -10.061952|    1.757960|
|          47|  8.1347e+00|  3.2084e-09|  7.6103e-01|  5.0000e-01|  5.0000e-01|  5.0000e-01|   -7.776544|   -7.899858|   -8.411168|   -8.047176|   -8.042585|  -10.062103|    1.757961|
|          48|  8.1377e+00|  3.2083e-09|  7.6103e-01|  5.0000e-01|  5.0000e-01|  5.0000e-01|   -7.776899|   -7.900259|   -8.411415|   -8.047458|   -8.042822|  -10.062255|    1.757961|
|          49|  8.1426e+00|  3.2083e-09|  7.6103e-01|  5.0000e-01|  5.0000e-01|  5.0000e-01|   -7.777258|   -7.900665|   -8.411665|   -8.047745|   -8.043064|  -10.062407|    1.757961|
|          50|  8.1492e+00|  3.2083e-09|  7.6103e-01|  5.0000e-01|  5.0000e-01|  5.0000e-01|   -7.777620|   -7.901075|   -8.411916|   -8.048037|   -8.043311|  -10.062560|    1.757962|
|          51|  8.1643e+00|  3.2083e-09|  7.6103e-01|  5.0000e-01|  5.0000e-01|  5.0000e-01|   -7.777987|   -7.901490|   -8.412169|   -8.048334|   -8.043563|  -10.062713|    1.757962|
|          52|  8.1729e+00|  3.2082e-09|  7.6103e-01|  5.0000e-01|  5.0000e-01|  5.0000e-01|   -7.778358|   -7.901910|   -8.412422|   -8.048637|   -8.043822|  -10.062867|    1.757963|
|          53|  8.1870e+00|  3.2082e-09|  7.6103e-01|  5.0000e-01|  5.0000e-01|  5.0000e-01|   -7.778733|   -7.902335|   -8.412677|   -8.048945|   -8.044087|  -10.063021|    1.757963|
|          54|  8.2035e+00|  3.2082e-09|  7.6103e-01|  5.0000e-01|  5.0000e-01|  5.0000e-01|   -7.779114|   -7.902766|   -8.412933|   -8.049259|   -8.044357|  -10.063176|    1.757963|
|          55|  8.2153e+00|  3.2081e-09|  7.6103e-01|  5.0000e-01|  5.0000e-01|  5.0000e-01|   -7.779499|   -7.903203|   -8.413189|   -8.049579|   -8.044635|  -10.063332|    1.757964|
|          56|  8.2325e+00|  3.2081e-09|  7.6103e-01|  5.0000e-01|  5.0000e-01|  5.0000e-01|   -7.779890|   -7.903645|   -8.413446|   -8.049906|   -8.044919|  -10.063488|    1.757964|
|          57|  8.2474e+00|  3.2081e-09|  7.6103e-01|  5.0000e-01|  5.0000e-01|  5.0000e-01|   -7.780286|   -7.904093|   -8.413703|   -8.050238|   -8.045209|  -10.063645|    1.757965|
|          58|  8.2610e+00|  3.2081e-09|  7.6103e-01|  5.0000e-01|  5.0000e-01|  5.0000e-01|   -7.780687|   -7.904547|   -8.413960|   -8.050576|   -8.045506|  -10.063802|    1.757965|
|          59|  8.2752e+00|  3.2080e-09|  7.6103e-01|  5.0000e-01|  5.0000e-01|  5.0000e-01|   -7.781093|   -7.905007|   -8.414216|   -8.050921|   -8.045810|  -10.063960|    1.757965|
|          60|  8.2886e+00|  3.2080e-09|  7.6103e-01|  5.0000e-01|  5.0000e-01|  5.0000e-01|   -7.781505|   -7.905473|   -8.414473|   -8.051271|   -8.046121|  -10.064119|    1.757966|
|          61|  8.2965e+00|  3.2080e-09|  7.6103e-01|  5.0000e-01|  5.0000e-01|  5.0000e-01|   -7.781922|   -7.905945|   -8.414729|   -8.051628|   -8.046438|  -10.064278|    1.757966|
|          62|  8.3108e+00|  3.2079e-09|  7.6103e-01|  5.0000e-01|  5.0000e-01|  5.0000e-01|   -7.782344|   -7.906423|   -8.414985|   -8.051991|   -8.046761|  -10.064438|    1.757967|
|          63|  8.3157e+00|  3.2079e-09|  7.6103e-01|  5.0000e-01|  5.0000e-01|  5.0000e-01|   -7.782772|   -7.906906|   -8.415240|   -8.052360|   -8.047091|  -10.064598|    1.757967|
|          64|  8.3207e+00|  3.2079e-09|  7.6103e-01|  5.0000e-01|  5.0000e-01|  5.0000e-01|   -7.783205|   -7.907395|   -8.415494|   -8.052735|   -8.047428|  -10.064759|    1.757967|
|          65|  8.3251e+00|  3.2078e-09|  7.6103e-01|  5.0000e-01|  5.0000e-01|  5.0000e-01|   -7.783644|   -7.907890|   -8.415747|   -8.053116|   -8.047770|  -10.064921|    1.757968|
|          66|  8.3284e+00|  3.2078e-09|  7.6103e-01|  5.0000e-01|  5.0000e-01|  5.0000e-01|   -7.784088|   -7.908391|   -8.416000|   -8.053502|   -8.048119|  -10.065083|    1.757968|
|          67|  8.3305e+00|  3.2078e-09|  7.6103e-01|  5.0000e-01|  5.0000e-01|  5.0000e-01|   -7.784537|   -7.908896|   -8.416251|   -8.053895|   -8.048473|  -10.065246|    1.757969|
|          68|  8.3328e+00|  3.2078e-09|  7.6103e-01|  5.0000e-01|  5.0000e-01|  5.0000e-01|   -7.784990|   -7.909408|   -8.416501|   -8.054293|   -8.048834|  -10.065409|    1.757969|
|          69|  8.3359e+00|  3.2077e-09|  7.6103e-01|  5.0000e-01|  5.0000e-01|  5.0000e-01|   -7.785449|   -7.909924|   -8.416750|   -8.054696|   -8.049200|  -10.065573|    1.757969|
|          70|  8.3405e+00|  3.2077e-09|  7.6103e-01|  5.0000e-01|  5.0000e-01|  5.0000e-01|   -7.785913|   -7.910446|   -8.416998|   -8.055105|   -8.049571|  -10.065738|    1.757970|
|          71|  8.3435e+00|  3.2077e-09|  7.6103e-01|  5.0000e-01|  5.0000e-01|  5.0000e-01|   -7.786381|   -7.910972|   -8.417244|   -8.055520|   -8.049948|  -10.065903|    1.757970|
|          72|  8.3474e+00|  3.2076e-09|  7.6103e-01|  5.0000e-01|  5.0000e-01|  5.0000e-01|   -7.786855|   -7.911504|   -8.417489|   -8.055939|   -8.050330|  -10.066069|    1.757971|
|          73|  8.3491e+00|  3.2076e-09|  7.6103e-01|  5.0000e-01|  5.0000e-01|  5.0000e-01|   -7.787332|   -7.912040|   -8.417733|   -8.056364|   -8.050717|  -10.066235|    1.757971|
|          74|  8.3504e+00|  3.2076e-09|  7.6103e-01|  5.0000e-01|  5.0000e-01|  5.0000e-01|   -7.787814|   -7.912581|   -8.417975|   -8.056793|   -8.051109|  -10.066402|    1.757972|
|          75|  8.3518e+00|  3.2076e-09|  7.6103e-01|  5.0000e-01|  5.0000e-01|  5.0000e-01|   -7.788300|   -7.913127|   -8.418215|   -8.057228|   -8.051505|  -10.066570|    1.757972|
|          76|  8.3561e+00|  3.2075e-09|  7.6103e-01|  5.0000e-01|  5.0000e-01|  5.0000e-01|   -7.788791|   -7.913677|   -8.418454|   -8.057667|   -8.051907|  -10.066738|    1.757972|
|          77|  8.3599e+00|  3.2075e-09|  7.6103e-01|  5.0000e-01|  5.0000e-01|  5.0000e-01|   -7.789285|   -7.914231|   -8.418691|   -8.058111|   -8.052312|  -10.066907|    1.757973|
|          78|  8.3629e+00|  3.2075e-09|  7.6103e-01|  5.0000e-01|  5.0000e-01|  5.0000e-01|   -7.789783|   -7.914790|   -8.418926|   -8.058559|   -8.052721|  -10.067077|    1.757973|
|          79|  8.3660e+00|  3.2074e-09|  7.6103e-01|  5.0000e-01|  5.0000e-01|  5.0000e-01|   -7.790285|   -7.915352|   -8.419160|   -8.059012|   -8.053135|  -10.067247|    1.757974|
|          80|  8.3660e+00|  3.2074e-09|  7.6103e-01|  5.0000e-01|  5.0000e-01|  5.0000e-01|   -7.790790|   -7.915919|   -8.419391|   -8.059469|   -8.053552|  -10.067417|    1.757974|
|          81|  8.3675e+00|  3.2074e-09|  7.6103e-01|  5.0000e-01|  5.0000e-01|  5.0000e-01|   -7.791298|   -7.916489|   -8.419621|   -8.059930|   -8.053973|  -10.067589|    1.757975|
|          82|  8.3689e+00|  3.2074e-09|  7.6103e-01|  5.0000e-01|  5.0000e-01|  5.0000e-01|   -7.791810|   -7.917063|   -8.419849|   -8.060395|   -8.054398|  -10.067761|    1.757975|
|          83|  8.3696e+00|  3.2073e-09|  7.6103e-01|  5.0000e-01|  5.0000e-01|  5.0000e-01|   -7.792325|   -7.917641|   -8.420075|   -8.060863|   -8.054826|  -10.067933|    1.757975|
|          84|  8.3702e+00|  3.2073e-09|  7.6103e-01|  5.0000e-01|  5.0000e-01|  5.0000e-01|   -7.792843|   -7.918223|   -8.420299|   -8.061336|   -8.055257|  -10.068106|    1.757976|
|          85|  8.3716e+00|  3.2073e-09|  7.6103e-01|  5.0000e-01|  5.0000e-01|  5.0000e-01|   -7.793363|   -7.918807|   -8.420521|   -8.061812|   -8.055691|  -10.068280|    1.757976|
|          86|  8.3729e+00|  3.2072e-09|  7.6103e-01|  5.0000e-01|  5.0000e-01|  5.0000e-01|   -7.793886|   -7.919395|   -8.420741|   -8.062292|   -8.056128|  -10.068454|    1.757977|
|          87|  8.3736e+00|  3.2072e-09|  7.6103e-01|  5.0000e-01|  5.0000e-01|  5.0000e-01|   -7.794412|   -7.919986|   -8.420959|   -8.062775|   -8.056568|  -10.068629|    1.757977|
|          88|  8.3728e+00|  3.2072e-09|  7.6103e-01|  5.0000e-01|  5.0000e-01|  5.0000e-01|   -7.794939|   -7.920581|   -8.421174|   -8.063262|   -8.057011|  -10.068804|    1.757977|
|          89|  8.3723e+00|  3.2072e-09|  7.6103e-01|  5.0000e-01|  5.0000e-01|  5.0000e-01|   -7.795469|   -7.921178|   -8.421388|   -8.063751|   -8.057456|  -10.068980|    1.757978|
|          90|  8.3723e+00|  3.2071e-09|  7.6103e-01|  5.0000e-01|  5.0000e-01|  5.0000e-01|   -7.796001|   -7.921778|   -8.421599|   -8.064244|   -8.057903|  -10.069157|    1.757978|
|          91|  8.3725e+00|  3.2071e-09|  7.6103e-01|  5.0000e-01|  5.0000e-01|  5.0000e-01|   -7.796534|   -7.922381|   -8.421808|   -8.064739|   -8.058352|  -10.069334|    1.757979|
|          92|  8.3737e+00|  3.2071e-09|  7.6103e-01|  5.0000e-01|  5.0000e-01|  5.0000e-01|   -7.797069|   -7.922986|   -8.422014|   -8.065237|   -8.058803|  -10.069511|    1.757979|
|          93|  8.3779e+00|  3.2070e-09|  7.6103e-01|  5.0000e-01|  5.0000e-01|  5.0000e-01|   -7.797606|   -7.923594|   -8.422219|   -8.065738|   -8.059257|  -10.069690|    1.757980|
|          94|  8.3783e+00|  3.2070e-09|  7.6103e-01|  5.0000e-01|  5.0000e-01|  5.0000e-01|   -7.798144|   -7.924204|   -8.422421|   -8.066242|   -8.059712|  -10.069868|    1.757980|
|          95|  8.3812e+00|  3.2070e-09|  7.6103e-01|  5.0000e-01|  5.0000e-01|  5.0000e-01|   -7.798683|   -7.924817|   -8.422620|   -8.066747|   -8.060168|  -10.070048|    1.757980|
|          96|  8.3817e+00|  3.2070e-09|  7.6103e-01|  5.0000e-01|  5.0000e-01|  5.0000e-01|   -7.799223|   -7.925432|   -8.422817|   -8.067255|   -8.060626|  -10.070228|    1.757981|
|          97|  8.3836e+00|  3.2069e-09|  7.6103e-01|  5.0000e-01|  5.0000e-01|  5.0000e-01|   -7.799765|   -7.926049|   -8.423012|   -8.067766|   -8.061086|  -10.070408|    1.757981|
|          98|  8.3830e+00|  3.2069e-09|  7.6103e-01|  5.0000e-01|  5.0000e-01|  5.0000e-01|   -7.800307|   -7.926668|   -8.423204|   -8.068278|   -8.061547|  -10.070589|    1.757982|
|          99|  8.3819e+00|  3.2069e-09|  7.6103e-01|  5.0000e-01|  5.0000e-01|  5.0000e-01|   -7.800850|   -7.927289|   -8.423394|   -8.068793|   -8.062009|  -10.070771|    1.757982|
|         100|  8.3800e+00|  3.2068e-09|  7.6103e-01|  5.0000e-01|  5.0000e-01|  5.0000e-01|   -7.801393|   -7.927912|   -8.423581|   -8.069309|   -8.062472|  -10.070953|    1.757983|
|         101|  8.3797e+00|  3.2068e-09|  7.6103e-01|  5.0000e-01|  5.0000e-01|  5.0000e-01|   -7.801938|   -7.928537|   -8.423766|   -8.069828|   -8.062936|  -10.071135|    1.757983|
|         102|  8.3799e+00|  3.2068e-09|  7.6103e-01|  5.0000e-01|  5.0000e-01|  5.0000e-01|   -7.802482|   -7.929164|   -8.423948|   -8.070348|   -8.063401|  -10.071319|    1.757984|
|         103|  8.3803e+00|  3.2068e-09|  7.6103e-01|  5.0000e-01|  5.0000e-01|  5.0000e-01|   -7.803028|   -7.929792|   -8.424127|   -8.070871|   -8.063868|  -10.071502|    1.757984|
|         104|  8.3785e+00|  3.2067e-09|  7.6103e-01|  5.0000e-01|  5.0000e-01|  5.0000e-01|   -7.803573|   -7.930422|   -8.424304|   -8.071395|   -8.064335|  -10.071687|    1.757984|
|         105|  8.3786e+00|  3.2067e-09|  7.6103e-01|  5.0000e-01|  5.0000e-01|  5.0000e-01|   -7.804119|   -7.931053|   -8.424478|   -8.071921|   -8.064803|  -10.071871|    1.757985|
|         106|  8.3783e+00|  3.2067e-09|  7.6103e-01|  5.0000e-01|  5.0000e-01|  5.0000e-01|   -7.804666|   -7.931686|   -8.424650|   -8.072448|   -8.065271|  -10.072057|    1.757985|
|         107|  8.3797e+00|  3.2066e-09|  7.6103e-01|  5.0000e-01|  5.0000e-01|  5.0000e-01|   -7.805212|   -7.932320|   -8.424819|   -8.072977|   -8.065741|  -10.072243|    1.757986|
|         108|  8.3831e+00|  3.2066e-09|  7.6103e-01|  5.0000e-01|  5.0000e-01|  5.0000e-01|   -7.805759|   -7.932956|   -8.424985|   -8.073508|   -8.066211|  -10.072429|    1.757986|
|         109|  8.3828e+00|  3.2066e-09|  7.6103e-01|  5.0000e-01|  5.0000e-01|  5.0000e-01|   -7.806306|   -7.933593|   -8.425148|   -8.074040|   -8.066682|  -10.072616|    1.757987|
|         110|  8.3840e+00|  3.2066e-09|  7.6103e-01|  5.0000e-01|  5.0000e-01|  5.0000e-01|   -7.806852|   -7.934231|   -8.425309|   -8.074574|   -8.067153|  -10.072803|    1.757987|
|         111|  8.3848e+00|  3.2065e-09|  7.6103e-01|  5.0000e-01|  5.0000e-01|  5.0000e-01|   -7.807399|   -7.934870|   -8.425467|   -8.075109|   -8.067625|  -10.072991|    1.757987|
|         112|  8.3851e+00|  3.2065e-09|  7.6103e-01|  5.0000e-01|  5.0000e-01|  5.0000e-01|   -7.807946|   -7.935511|   -8.425623|   -8.075646|   -8.068097|  -10.073180|    1.757988|
|         113|  8.3844e+00|  3.2065e-09|  7.6103e-01|  5.0000e-01|  5.0000e-01|  5.0000e-01|   -7.808493|   -7.936152|   -8.425775|   -8.076184|   -8.068571|  -10.073369|    1.757988|
|         114|  8.3860e+00|  3.2064e-09|  7.6103e-01|  5.0000e-01|  5.0000e-01|  5.0000e-01|   -7.809040|   -7.936795|   -8.425925|   -8.076723|   -8.069044|  -10.073558|    1.757989|
|         115|  8.3883e+00|  3.2064e-09|  7.6103e-01|  5.0000e-01|  5.0000e-01|  5.0000e-01|   -7.809587|   -7.937438|   -8.426072|   -8.077264|   -8.069518|  -10.073748|    1.757989|
|         116|  8.3895e+00|  3.2064e-09|  7.6103e-01|  5.0000e-01|  5.0000e-01|  5.0000e-01|   -7.810134|   -7.938083|   -8.426216|   -8.077807|   -8.069993|  -10.073939|    1.757990|
|         117|  8.3908e+00|  3.2064e-09|  7.6103e-01|  5.0000e-01|  5.0000e-01|  5.0000e-01|   -7.810680|   -7.938729|   -8.426358|   -8.078350|   -8.070468|  -10.074130|    1.757990|
|         118|  8.3924e+00|  3.2063e-09|  7.6103e-01|  5.0000e-01|  5.0000e-01|  5.0000e-01|   -7.811227|   -7.939375|   -8.426496|   -8.078895|   -8.070944|  -10.074321|    1.757991|
|         119|  8.3934e+00|  3.2063e-09|  7.6103e-01|  5.0000e-01|  5.0000e-01|  5.0000e-01|   -7.811773|   -7.940022|   -8.426632|   -8.079442|   -8.071420|  -10.074513|    1.757991|
|         120|  8.3969e+00|  3.2063e-09|  7.6103e-01|  5.0000e-01|  5.0000e-01|  5.0000e-01|   -7.812319|   -7.940670|   -8.426765|   -8.079989|   -8.071897|  -10.074706|    1.757991|
|         121|  8.3975e+00|  3.2062e-09|  7.6103e-01|  5.0000e-01|  5.0000e-01|  5.0000e-01|   -7.812864|   -7.941319|   -8.426895|   -8.080538|   -8.072373|  -10.074899|    1.757992|
|         122|  8.3963e+00|  3.2062e-09|  7.6103e-01|  5.0000e-01|  5.0000e-01|  5.0000e-01|   -7.813410|   -7.941968|   -8.427022|   -8.081088|   -8.072851|  -10.075092|    1.757992|
|         123|  8.3964e+00|  3.2062e-09|  7.6103e-01|  5.0000e-01|  5.0000e-01|  5.0000e-01|   -7.813955|   -7.942618|   -8.427146|   -8.081639|   -8.073329|  -10.075286|    1.757993|
|         124|  8.3974e+00|  3.2061e-09|  7.6103e-01|  5.0000e-01|  5.0000e-01|  5.0000e-01|   -7.814499|   -7.943269|   -8.427267|   -8.082192|   -8.073807|  -10.075480|    1.757993|
|         125|  8.3970e+00|  3.2061e-09|  7.6103e-01|  5.0000e-01|  5.0000e-01|  5.0000e-01|   -7.815043|   -7.943920|   -8.427385|   -8.082745|   -8.074285|  -10.075675|    1.757994|
|         126|  8.3962e+00|  3.2061e-09|  7.6103e-01|  5.0000e-01|  5.0000e-01|  5.0000e-01|   -7.815587|   -7.944571|   -8.427500|   -8.083299|   -8.074763|  -10.075871|    1.757994|
|         127|  8.3966e+00|  3.2061e-09|  7.6103e-01|  5.0000e-01|  5.0000e-01|  5.0000e-01|   -7.816130|   -7.945223|   -8.427613|   -8.083855|   -8.075242|  -10.076067|    1.757995|
|         128|  8.3968e+00|  3.2060e-09|  7.6103e-01|  5.0000e-01|  5.0000e-01|  5.0000e-01|   -7.816673|   -7.945874|   -8.427722|   -8.084411|   -8.075721|  -10.076263|    1.757995|
|         129|  8.3977e+00|  3.2060e-09|  7.6103e-01|  5.0000e-01|  5.0000e-01|  5.0000e-01|   -7.817214|   -7.946527|   -8.427828|   -8.084968|   -8.076200|  -10.076460|    1.757995|
|         130|  8.3980e+00|  3.2060e-09|  7.6103e-01|  5.0000e-01|  5.0000e-01|  5.0000e-01|   -7.817755|   -7.947179|   -8.427931|   -8.085526|   -8.076680|  -10.076657|    1.757996|
|         131|  8.3978e+00|  3.2059e-09|  7.6103e-01|  5.0000e-01|  5.0000e-01|  5.0000e-01|   -7.818296|   -7.947831|   -8.428031|   -8.086084|   -8.077159|  -10.076855|    1.757996|
|         132|  8.3968e+00|  3.2059e-09|  7.6103e-01|  5.0000e-01|  5.0000e-01|  5.0000e-01|   -7.818835|   -7.948483|   -8.428128|   -8.086644|   -8.077638|  -10.077053|    1.757997|
|         133|  8.3965e+00|  3.2059e-09|  7.6103e-01|  5.0000e-01|  5.0000e-01|  5.0000e-01|   -7.819373|   -7.949135|   -8.428222|   -8.087203|   -8.078117|  -10.077252|    1.757997|
|         134|  8.3964e+00|  3.2059e-09|  7.6103e-01|  5.0000e-01|  5.0000e-01|  5.0000e-01|   -7.819911|   -7.949787|   -8.428313|   -8.087764|   -8.078596|  -10.077451|    1.757998|
|         135|  8.3964e+00|  3.2058e-09|  7.6103e-01|  5.0000e-01|  5.0000e-01|  5.0000e-01|   -7.820447|   -7.950439|   -8.428400|   -8.088325|   -8.079075|  -10.077651|    1.757998|
|         136|  8.3963e+00|  3.2058e-09|  7.6103e-01|  5.0000e-01|  5.0000e-01|  5.0000e-01|   -7.820982|   -7.951090|   -8.428484|   -8.088886|   -8.079554|  -10.077851|    1.757999|
|         137|  8.3969e+00|  3.2058e-09|  7.6103e-01|  5.0000e-01|  5.0000e-01|  5.0000e-01|   -7.821515|   -7.951740|   -8.428565|   -8.089447|   -8.080032|  -10.078051|    1.757999|
|         138|  8.3967e+00|  3.2057e-09|  7.6103e-01|  5.0000e-01|  5.0000e-01|  5.0000e-01|   -7.822047|   -7.952391|   -8.428643|   -8.090008|   -8.080509|  -10.078252|    1.757999|
|         139|  8.3975e+00|  3.2057e-09|  7.6103e-01|  5.0000e-01|  5.0000e-01|  5.0000e-01|   -7.822578|   -7.953040|   -8.428718|   -8.090570|   -8.080987|  -10.078454|    1.758000|
|         140|  8.3969e+00|  3.2057e-09|  7.6103e-01|  5.0000e-01|  5.0000e-01|  5.0000e-01|   -7.823108|   -7.953690|   -8.428789|   -8.091132|   -8.081464|  -10.078656|    1.758000|
|         141|  8.3977e+00|  3.2057e-09|  7.6103e-01|  5.0000e-01|  5.0000e-01|  5.0000e-01|   -7.823636|   -7.954338|   -8.428858|   -8.091694|   -8.081940|  -10.078858|    1.758001|
|         142|  8.3982e+00|  3.2056e-09|  7.6103e-01|  5.0000e-01|  5.0000e-01|  5.0000e-01|   -7.824162|   -7.954985|   -8.428923|   -8.092256|   -8.082416|  -10.079061|    1.758001|
|         143|  8.3983e+00|  3.2056e-09|  7.6103e-01|  5.0000e-01|  5.0000e-01|  5.0000e-01|   -7.824687|   -7.955632|   -8.428985|   -8.092818|   -8.082891|  -10.079264|    1.758002|
|         144|  8.3996e+00|  3.2056e-09|  7.6103e-01|  5.0000e-01|  5.0000e-01|  5.0000e-01|   -7.825210|   -7.956278|   -8.429043|   -8.093379|   -8.083366|  -10.079467|    1.758002|
|         145|  8.3997e+00|  3.2055e-09|  7.6103e-01|  5.0000e-01|  5.0000e-01|  5.0000e-01|   -7.825731|   -7.956922|   -8.429098|   -8.093941|   -8.083840|  -10.079671|    1.758003|
|         146|  8.3995e+00|  3.2055e-09|  7.6103e-01|  5.0000e-01|  5.0000e-01|  5.0000e-01|   -7.826250|   -7.957566|   -8.429150|   -8.094502|   -8.084313|  -10.079876|    1.758003|
|         147|  8.3991e+00|  3.2055e-09|  7.6103e-01|  5.0000e-01|  5.0000e-01|  5.0000e-01|   -7.826767|   -7.958208|   -8.429198|   -8.095062|   -8.084785|  -10.080080|    1.758003|
|         148|  8.3996e+00|  3.2055e-09|  7.6103e-01|  5.0000e-01|  5.0000e-01|  5.0000e-01|   -7.827282|   -7.958850|   -8.429243|   -8.095622|   -8.085256|  -10.080286|    1.758004|
|         149|  8.4003e+00|  3.2054e-09|  7.6103e-01|  5.0000e-01|  5.0000e-01|  5.0000e-01|   -7.827795|   -7.959489|   -8.429285|   -8.096182|   -8.085726|  -10.080491|    1.758004|
|         150|  8.3997e+00|  3.2054e-09|  7.6103e-01|  5.0000e-01|  5.0000e-01|  5.0000e-01|   -7.828305|   -7.960128|   -8.429323|   -8.096741|   -8.086195|  -10.080697|    1.758005|
+-----------------------------------------------------------------------+
|        File Writing Summary       |              Filename             |
+-----------------------------------------------------------------------+
|SU2 binary restart                 |restart_flow.dat                   |
|Paraview                           |flow.vtu                           |
|Paraview surface                   |surface_flow.vtu                   |
+-----------------------------------------------------------------------+
+-------------------------------------------------------------------------------------------------------------------------------------------------------------------------------------+
|  Inner_Iter|   Time(sec)|      Min DT|      Max DT|     Min CFL|     Max CFL|     Avg CFL|    rms[Rho]|   rms[RhoU]|   rms[RhoV]|   rms[RhoW]|   rms[RhoE]|     rms[nu]|          CD|
+-------------------------------------------------------------------------------------------------------------------------------------------------------------------------------------+
|         151|  8.5558e+00|  3.2054e-09|  7.6103e-01|  5.0000e-01|  5.0000e-01|  5.0000e-01|   -7.828813|   -7.960765|   -8.429357|   -8.097299|   -8.086663|  -10.080903|    1.758005|
|         152|  8.5562e+00|  3.2053e-09|  7.6103e-01|  5.0000e-01|  5.0000e-01|  5.0000e-01|   -7.829319|   -7.961400|   -8.429388|   -8.097856|   -8.087129|  -10.081110|    1.758006|
|         153|  8.5574e+00|  3.2053e-09|  7.6103e-01|  5.0000e-01|  5.0000e-01|  5.0000e-01|   -7.829823|   -7.962034|   -8.429416|   -8.098413|   -8.087595|  -10.081317|    1.758006|
|         154|  8.5595e+00|  3.2053e-09|  7.6103e-01|  5.0000e-01|  5.0000e-01|  5.0000e-01|   -7.830323|   -7.962666|   -8.429440|   -8.098969|   -8.088059|  -10.081525|    1.758007|
|         155|  8.5615e+00|  3.2053e-09|  7.6103e-01|  5.0000e-01|  5.0000e-01|  5.0000e-01|   -7.830822|   -7.963297|   -8.429460|   -8.099524|   -8.088522|  -10.081733|    1.758007|
|         156|  8.5639e+00|  3.2052e-09|  7.6103e-01|  5.0000e-01|  5.0000e-01|  5.0000e-01|   -7.831317|   -7.963926|   -8.429477|   -8.100077|   -8.088983|  -10.081941|    1.758007|
|         157|  8.5659e+00|  3.2052e-09|  7.6103e-01|  5.0000e-01|  5.0000e-01|  5.0000e-01|   -7.831810|   -7.964553|   -8.429490|   -8.100630|   -8.089443|  -10.082150|    1.758008|
|         158|  8.5659e+00|  3.2052e-09|  7.6103e-01|  5.0000e-01|  5.0000e-01|  5.0000e-01|   -7.832300|   -7.965177|   -8.429499|   -8.101182|   -8.089902|  -10.082359|    1.758008|
|         159|  8.5658e+00|  3.2051e-09|  7.6103e-01|  5.0000e-01|  5.0000e-01|  5.0000e-01|   -7.832787|   -7.965800|   -8.429505|   -8.101732|   -8.090359|  -10.082568|    1.758009|
|         160|  8.5652e+00|  3.2051e-09|  7.6103e-01|  5.0000e-01|  5.0000e-01|  5.0000e-01|   -7.833272|   -7.966421|   -8.429507|   -8.102281|   -8.090814|  -10.082778|    1.758009|
|         161|  8.5636e+00|  3.2051e-09|  7.6103e-01|  5.0000e-01|  5.0000e-01|  5.0000e-01|   -7.833753|   -7.967040|   -8.429506|   -8.102828|   -8.091268|  -10.082988|    1.758010|
|         162|  8.5619e+00|  3.2051e-09|  7.6103e-01|  5.0000e-01|  5.0000e-01|  5.0000e-01|   -7.834231|   -7.967656|   -8.429501|   -8.103374|   -8.091720|  -10.083199|    1.758010|
|         163|  8.5587e+00|  3.2050e-09|  7.6103e-01|  5.0000e-01|  5.0000e-01|  5.0000e-01|   -7.834705|   -7.968270|   -8.429492|   -8.103919|   -8.092170|  -10.083410|    1.758011|
|         164|  8.5550e+00|  3.2050e-09|  7.6103e-01|  5.0000e-01|  5.0000e-01|  5.0000e-01|   -7.835177|   -7.968881|   -8.429480|   -8.104461|   -8.092618|  -10.083621|    1.758011|
|         165|  8.5510e+00|  3.2050e-09|  7.6103e-01|  5.0000e-01|  5.0000e-01|  5.0000e-01|   -7.835645|   -7.969490|   -8.429463|   -8.105002|   -8.093065|  -10.083833|    1.758011|
|         166|  8.5475e+00|  3.2049e-09|  7.6103e-01|  5.0000e-01|  5.0000e-01|  5.0000e-01|   -7.836109|   -7.970097|   -8.429443|   -8.105541|   -8.093509|  -10.084045|    1.758012|
|         167|  8.5433e+00|  3.2049e-09|  7.6103e-01|  5.0000e-01|  5.0000e-01|  5.0000e-01|   -7.836570|   -7.970700|   -8.429419|   -8.106079|   -8.093951|  -10.084257|    1.758012|
|         168|  8.5397e+00|  3.2049e-09|  7.6103e-01|  5.0000e-01|  5.0000e-01|  5.0000e-01|   -7.837028|   -7.971301|   -8.429392|   -8.106614|   -8.094391|  -10.084470|    1.758013|
|         169|  8.5357e+00|  3.2049e-09|  7.6103e-01|  5.0000e-01|  5.0000e-01|  5.0000e-01|   -7.837481|   -7.971898|   -8.429361|   -8.107147|   -8.094829|  -10.084683|    1.758013|
|         170|  8.5318e+00|  3.2048e-09|  7.6103e-01|  5.0000e-01|  5.0000e-01|  5.0000e-01|   -7.837931|   -7.972493|   -8.429326|   -8.107677|   -8.095265|  -10.084896|    1.758014|
|         171|  8.5282e+00|  3.2048e-09|  7.6103e-01|  5.0000e-01|  5.0000e-01|  5.0000e-01|   -7.838377|   -7.973085|   -8.429287|   -8.108206|   -8.095698|  -10.085110|    1.758014|
|         172|  8.5240e+00|  3.2048e-09|  7.6103e-01|  5.0000e-01|  5.0000e-01|  5.0000e-01|   -7.838818|   -7.973673|   -8.429244|   -8.108732|   -8.096128|  -10.085324|    1.758015|
|         173|  8.5201e+00|  3.2047e-09|  7.6103e-01|  5.0000e-01|  5.0000e-01|  5.0000e-01|   -7.839256|   -7.974258|   -8.429197|   -8.109255|   -8.096556|  -10.085538|    1.758015|
|         174|  8.5169e+00|  3.2047e-09|  7.6103e-01|  5.0000e-01|  5.0000e-01|  5.0000e-01|   -7.839690|   -7.974839|   -8.429147|   -8.109776|   -8.096982|  -10.085753|    1.758015|
|         175|  8.5146e+00|  3.2047e-09|  7.6103e-01|  5.0000e-01|  5.0000e-01|  5.0000e-01|   -7.840119|   -7.975417|   -8.429093|   -8.110294|   -8.097405|  -10.085968|    1.758016|
|         176|  8.5119e+00|  3.2047e-09|  7.6103e-01|  5.0000e-01|  5.0000e-01|  5.0000e-01|   -7.840543|   -7.975991|   -8.429035|   -8.110810|   -8.097825|  -10.086183|    1.758016|
|         177|  8.5098e+00|  3.2046e-09|  7.6103e-01|  5.0000e-01|  5.0000e-01|  5.0000e-01|   -7.840964|   -7.976562|   -8.428973|   -8.111322|   -8.098242|  -10.086399|    1.758017|
|         178|  8.5103e+00|  3.2046e-09|  7.6103e-01|  5.0000e-01|  5.0000e-01|  5.0000e-01|   -7.841379|   -7.977128|   -8.428908|   -8.111831|   -8.098657|  -10.086614|    1.758017|
|         179|  8.5097e+00|  3.2046e-09|  7.6103e-01|  5.0000e-01|  5.0000e-01|  5.0000e-01|   -7.841791|   -7.977691|   -8.428838|   -8.112338|   -8.099068|  -10.086831|    1.758018|
|         180|  8.5078e+00|  3.2045e-09|  7.6103e-01|  5.0000e-01|  5.0000e-01|  5.0000e-01|   -7.842197|   -7.978249|   -8.428765|   -8.112841|   -8.099476|  -10.087047|    1.758018|
|         181|  8.5055e+00|  3.2045e-09|  7.6103e-01|  5.0000e-01|  5.0000e-01|  5.0000e-01|   -7.842598|   -7.978803|   -8.428688|   -8.113341|   -8.099882|  -10.087264|    1.758019|
|         182|  8.5029e+00|  3.2045e-09|  7.6103e-01|  5.0000e-01|  5.0000e-01|  5.0000e-01|   -7.842995|   -7.979353|   -8.428607|   -8.113837|   -8.100284|  -10.087481|    1.758019|
|         183|  8.5007e+00|  3.2045e-09|  7.6103e-01|  5.0000e-01|  5.0000e-01|  5.0000e-01|   -7.843387|   -7.979899|   -8.428522|   -8.114330|   -8.100683|  -10.087699|    1.758019|
|         184|  8.4978e+00|  3.2044e-09|  7.6103e-01|  5.0000e-01|  5.0000e-01|  5.0000e-01|   -7.843773|   -7.980440|   -8.428433|   -8.114819|   -8.101078|  -10.087917|    1.758020|
|         185|  8.4961e+00|  3.2044e-09|  7.6103e-01|  5.0000e-01|  5.0000e-01|  5.0000e-01|   -7.844154|   -7.980976|   -8.428341|   -8.115305|   -8.101470|  -10.088135|    1.758020|
|         186|  8.4937e+00|  3.2044e-09|  7.6103e-01|  5.0000e-01|  5.0000e-01|  5.0000e-01|   -7.844531|   -7.981508|   -8.428244|   -8.115786|   -8.101859|  -10.088353|    1.758021|
|         187|  8.4902e+00|  3.2043e-09|  7.6103e-01|  5.0000e-01|  5.0000e-01|  5.0000e-01|   -7.844901|   -7.982035|   -8.428144|   -8.116264|   -8.102244|  -10.088572|    1.758021|
|         188|  8.4874e+00|  3.2043e-09|  7.6103e-01|  5.0000e-01|  5.0000e-01|  5.0000e-01|   -7.845267|   -7.982557|   -8.428040|   -8.116738|   -8.102626|  -10.088791|    1.758022|
|         189|  8.4862e+00|  3.2043e-09|  7.6103e-01|  5.0000e-01|  5.0000e-01|  5.0000e-01|   -7.845627|   -7.983074|   -8.427932|   -8.117208|   -8.103004|  -10.089010|    1.758022|
|         190|  8.4853e+00|  3.2042e-09|  7.6103e-01|  5.0000e-01|  5.0000e-01|  5.0000e-01|   -7.845981|   -7.983586|   -8.427821|   -8.117674|   -8.103378|  -10.089230|    1.758023|
|         191|  8.4846e+00|  3.2042e-09|  7.6103e-01|  5.0000e-01|  5.0000e-01|  5.0000e-01|   -7.846330|   -7.984093|   -8.427705|   -8.118136|   -8.103748|  -10.089449|    1.758023|
|         192|  8.4832e+00|  3.2042e-09|  7.6103e-01|  5.0000e-01|  5.0000e-01|  5.0000e-01|   -7.846673|   -7.984595|   -8.427586|   -8.118593|   -8.104115|  -10.089669|    1.758023|
|         193|  8.4812e+00|  3.2042e-09|  7.6103e-01|  5.0000e-01|  5.0000e-01|  5.0000e-01|   -7.847010|   -7.985091|   -8.427463|   -8.119046|   -8.104478|  -10.089890|    1.758024|
|         194|  8.4792e+00|  3.2041e-09|  7.6103e-01|  5.0000e-01|  5.0000e-01|  5.0000e-01|   -7.847341|   -7.985582|   -8.427336|   -8.119494|   -8.104837|  -10.090110|    1.758024|
|         195|  8.4775e+00|  3.2041e-09|  7.6103e-01|  5.0000e-01|  5.0000e-01|  5.0000e-01|   -7.847666|   -7.986067|   -8.427206|   -8.119938|   -8.105191|  -10.090331|    1.758025|
|         196|  8.4765e+00|  3.2041e-09|  7.6103e-01|  5.0000e-01|  5.0000e-01|  5.0000e-01|   -7.847986|   -7.986547|   -8.427071|   -8.120378|   -8.105542|  -10.090552|    1.758025|
|         197|  8.4749e+00|  3.2040e-09|  7.6103e-01|  5.0000e-01|  5.0000e-01|  5.0000e-01|   -7.848299|   -7.987021|   -8.426933|   -8.120812|   -8.105889|  -10.090774|    1.758026|
|         198|  8.4725e+00|  3.2040e-09|  7.6103e-01|  5.0000e-01|  5.0000e-01|  5.0000e-01|   -7.848606|   -7.987489|   -8.426791|   -8.121242|   -8.106231|  -10.090995|    1.758026|
|         199|  8.4708e+00|  3.2040e-09|  7.6103e-01|  5.0000e-01|  5.0000e-01|  5.0000e-01|   -7.848907|   -7.987952|   -8.426646|   -8.121666|   -8.106570|  -10.091217|    1.758026|
|         200|  8.4692e+00|  3.2040e-09|  7.6103e-01|  5.0000e-01|  5.0000e-01|  5.0000e-01|   -7.849201|   -7.988408|   -8.426496|   -8.122086|   -8.106903|  -10.091439|    1.758027|
|         201|  8.4684e+00|  3.2039e-09|  7.6103e-01|  5.0000e-01|  5.0000e-01|  5.0000e-01|   -7.849489|   -7.988858|   -8.426343|   -8.122500|   -8.107233|  -10.091662|    1.758027|
|         202|  8.4664e+00|  3.2039e-09|  7.6103e-01|  5.0000e-01|  5.0000e-01|  5.0000e-01|   -7.849771|   -7.989302|   -8.426187|   -8.122909|   -8.107558|  -10.091884|    1.758028|
|         203|  8.4644e+00|  3.2039e-09|  7.6103e-01|  5.0000e-01|  5.0000e-01|  5.0000e-01|   -7.850046|   -7.989739|   -8.426026|   -8.123313|   -8.107878|  -10.092107|    1.758028|
|         204|  8.4627e+00|  3.2038e-09|  7.6103e-01|  5.0000e-01|  5.0000e-01|  5.0000e-01|   -7.850314|   -7.990170|   -8.425862|   -8.123712|   -8.108194|  -10.092330|    1.758029|
|         205|  8.4613e+00|  3.2038e-09|  7.6103e-01|  5.0000e-01|  5.0000e-01|  5.0000e-01|   -7.850575|   -7.990594|   -8.425694|   -8.124105|   -8.108506|  -10.092553|    1.758029|
|         206|  8.4607e+00|  3.2038e-09|  7.6103e-01|  5.0000e-01|  5.0000e-01|  5.0000e-01|   -7.850830|   -7.991012|   -8.425523|   -8.124492|   -8.108812|  -10.092777|    1.758030|
|         207|  8.4597e+00|  3.2038e-09|  7.6103e-01|  5.0000e-01|  5.0000e-01|  5.0000e-01|   -7.851078|   -7.991423|   -8.425348|   -8.124873|   -8.109114|  -10.093001|    1.758030|
|         208|  8.4582e+00|  3.2037e-09|  7.6103e-01|  5.0000e-01|  5.0000e-01|  5.0000e-01|   -7.851318|   -7.991827|   -8.425169|   -8.125249|   -8.109410|  -10.093224|    1.758030|
|         209|  8.4562e+00|  3.2037e-09|  7.6103e-01|  5.0000e-01|  5.0000e-01|  5.0000e-01|   -7.851552|   -7.992224|   -8.424987|   -8.125618|   -8.109702|  -10.093449|    1.758031|
|         210|  8.4549e+00|  3.2037e-09|  7.6103e-01|  5.0000e-01|  5.0000e-01|  5.0000e-01|   -7.851778|   -7.992614|   -8.424801|   -8.125982|   -8.109989|  -10.093673|    1.758031|
|         211|  8.4538e+00|  3.2036e-09|  7.6103e-01|  5.0000e-01|  5.0000e-01|  5.0000e-01|   -7.851998|   -7.992997|   -8.424612|   -8.126339|   -8.110271|  -10.093897|    1.758032|
|         212|  8.4520e+00|  3.2036e-09|  7.6103e-01|  5.0000e-01|  5.0000e-01|  5.0000e-01|   -7.852209|   -7.993372|   -8.424419|   -8.126690|   -8.110547|  -10.094122|    1.758032|
|         213|  8.4506e+00|  3.2036e-09|  7.6103e-01|  5.0000e-01|  5.0000e-01|  5.0000e-01|   -7.852414|   -7.993740|   -8.424222|   -8.127035|   -8.110818|  -10.094347|    1.758033|
|         214|  8.4491e+00|  3.2036e-09|  7.6103e-01|  5.0000e-01|  5.0000e-01|  5.0000e-01|   -7.852611|   -7.994100|   -8.424022|   -8.127373|   -8.111084|  -10.094572|    1.758033|
|         215|  8.4481e+00|  3.2035e-09|  7.6103e-01|  5.0000e-01|  5.0000e-01|  5.0000e-01|   -7.852800|   -7.994452|   -8.423818|   -8.127704|   -8.111344|  -10.094797|    1.758033|
|         216|  8.4462e+00|  3.2035e-09|  7.6103e-01|  5.0000e-01|  5.0000e-01|  5.0000e-01|   -7.852982|   -7.994797|   -8.423611|   -8.128029|   -8.111598|  -10.095023|    1.758034|
|         217|  8.4444e+00|  3.2035e-09|  7.6103e-01|  5.0000e-01|  5.0000e-01|  5.0000e-01|   -7.853155|   -7.995133|   -8.423400|   -8.128346|   -8.111847|  -10.095249|    1.758034|
|         218|  8.4432e+00|  3.2034e-09|  7.6103e-01|  5.0000e-01|  5.0000e-01|  5.0000e-01|   -7.853321|   -7.995462|   -8.423185|   -8.128657|   -8.112091|  -10.095474|    1.758035|
|         219|  8.4429e+00|  3.2034e-09|  7.6103e-01|  5.0000e-01|  5.0000e-01|  5.0000e-01|   -7.853479|   -7.995782|   -8.422968|   -8.128961|   -8.112328|  -10.095700|    1.758035|
|         220|  8.4420e+00|  3.2034e-09|  7.6103e-01|  5.0000e-01|  5.0000e-01|  5.0000e-01|   -7.853630|   -7.996094|   -8.422746|   -8.129257|   -8.112560|  -10.095927|    1.758036|
|         221|  8.4415e+00|  3.2034e-09|  7.6103e-01|  5.0000e-01|  5.0000e-01|  5.0000e-01|   -7.853772|   -7.996398|   -8.422522|   -8.129546|   -8.112786|  -10.096153|    1.758036|
|         222|  8.4403e+00|  3.2033e-09|  7.6103e-01|  5.0000e-01|  5.0000e-01|  5.0000e-01|   -7.853905|   -7.996693|   -8.422293|   -8.129828|   -8.113005|  -10.096379|    1.758036|
|         223|  8.4392e+00|  3.2033e-09|  7.6103e-01|  5.0000e-01|  5.0000e-01|  5.0000e-01|   -7.854031|   -7.996980|   -8.422062|   -8.130102|   -8.113219|  -10.096606|    1.758037|
|         224|  8.4375e+00|  3.2033e-09|  7.6103e-01|  5.0000e-01|  5.0000e-01|  5.0000e-01|   -7.854149|   -7.997258|   -8.421827|   -8.130368|   -8.113426|  -10.096833|    1.758037|
|         225|  8.4364e+00|  3.2032e-09|  7.6103e-01|  5.0000e-01|  5.0000e-01|  5.0000e-01|   -7.854258|   -7.997527|   -8.421588|   -8.130627|   -8.113627|  -10.097060|    1.758038|
|         226|  8.4353e+00|  3.2032e-09|  7.6103e-01|  5.0000e-01|  5.0000e-01|  5.0000e-01|   -7.854359|   -7.997787|   -8.421347|   -8.130878|   -8.113822|  -10.097287|    1.758038|
|         227|  8.4339e+00|  3.2032e-09|  7.6103e-01|  5.0000e-01|  5.0000e-01|  5.0000e-01|   -7.854451|   -7.998038|   -8.421101|   -8.131121|   -8.114011|  -10.097514|    1.758038|
|         228|  8.4324e+00|  3.2032e-09|  7.6103e-01|  5.0000e-01|  5.0000e-01|  5.0000e-01|   -7.854535|   -7.998281|   -8.420853|   -8.131356|   -8.114193|  -10.097742|    1.758039|
|         229|  8.4311e+00|  3.2031e-09|  7.6103e-01|  5.0000e-01|  5.0000e-01|  5.0000e-01|   -7.854610|   -7.998514|   -8.420601|   -8.131584|   -8.114369|  -10.097969|    1.758039|
|         230|  8.4295e+00|  3.2031e-09|  7.6103e-01|  5.0000e-01|  5.0000e-01|  5.0000e-01|   -7.854677|   -7.998738|   -8.420347|   -8.131803|   -8.114538|  -10.098197|    1.758040|
|         231|  8.4280e+00|  3.2031e-09|  7.6103e-01|  5.0000e-01|  5.0000e-01|  5.0000e-01|   -7.854735|   -7.998952|   -8.420088|   -8.132013|   -8.114701|  -10.098425|    1.758040|
|         232|  8.4273e+00|  3.2030e-09|  7.6103e-01|  5.0000e-01|  5.0000e-01|  5.0000e-01|   -7.854784|   -7.999158|   -8.419827|   -8.132216|   -8.114857|  -10.098652|    1.758041|
|         233|  8.4262e+00|  3.2030e-09|  7.6103e-01|  5.0000e-01|  5.0000e-01|  5.0000e-01|   -7.854825|   -7.999353|   -8.419562|   -8.132410|   -8.115007|  -10.098881|    1.758041|
|         234|  8.4256e+00|  3.2030e-09|  7.6103e-01|  5.0000e-01|  5.0000e-01|  5.0000e-01|   -7.854857|   -7.999540|   -8.419295|   -8.132596|   -8.115149|  -10.099109|    1.758041|
|         235|  8.4249e+00|  3.2030e-09|  7.6103e-01|  5.0000e-01|  5.0000e-01|  5.0000e-01|   -7.854880|   -7.999716|   -8.419024|   -8.132773|   -8.115285|  -10.099337|    1.758042|
|         236|  8.4244e+00|  3.2029e-09|  7.6103e-01|  5.0000e-01|  5.0000e-01|  5.0000e-01|   -7.854894|   -7.999884|   -8.418750|   -8.132941|   -8.115414|  -10.099565|    1.758042|
|         237|  8.4242e+00|  3.2029e-09|  7.6103e-01|  5.0000e-01|  5.0000e-01|  5.0000e-01|   -7.854899|   -8.000041|   -8.418473|   -8.133101|   -8.115537|  -10.099794|    1.758043|
|         238|  8.4232e+00|  3.2029e-09|  7.6103e-01|  5.0000e-01|  5.0000e-01|  5.0000e-01|   -7.854896|   -8.000189|   -8.418192|   -8.133252|   -8.115652|  -10.100023|    1.758043|
|         239|  8.4219e+00|  3.2028e-09|  7.6103e-01|  5.0000e-01|  5.0000e-01|  5.0000e-01|   -7.854883|   -8.000326|   -8.417909|   -8.133395|   -8.115760|  -10.100251|    1.758044|
|         240|  8.4204e+00|  3.2028e-09|  7.6103e-01|  5.0000e-01|  5.0000e-01|  5.0000e-01|   -7.854862|   -8.000454|   -8.417623|   -8.133528|   -8.115862|  -10.100480|    1.758044|
|         241|  8.4194e+00|  3.2028e-09|  7.6103e-01|  5.0000e-01|  5.0000e-01|  5.0000e-01|   -7.854831|   -8.000572|   -8.417334|   -8.133652|   -8.115956|  -10.100709|    1.758044|
|         242|  8.4181e+00|  3.2028e-09|  7.6103e-01|  5.0000e-01|  5.0000e-01|  5.0000e-01|   -7.854791|   -8.000680|   -8.417041|   -8.133768|   -8.116043|  -10.100938|    1.758045|
|         243|  8.4166e+00|  3.2027e-09|  7.6103e-01|  5.0000e-01|  5.0000e-01|  5.0000e-01|   -7.854743|   -8.000778|   -8.416746|   -8.133874|   -8.116123|  -10.101167|    1.758045|
|         244|  8.4155e+00|  3.2027e-09|  7.6103e-01|  5.0000e-01|  5.0000e-01|  5.0000e-01|   -7.854685|   -8.000865|   -8.416448|   -8.133971|   -8.116196|  -10.101396|    1.758046|
|         245|  8.4146e+00|  3.2027e-09|  7.6103e-01|  5.0000e-01|  5.0000e-01|  5.0000e-01|   -7.854618|   -8.000943|   -8.416147|   -8.134059|   -8.116262|  -10.101626|    1.758046|
|         246|  8.4139e+00|  3.2026e-09|  7.6103e-01|  5.0000e-01|  5.0000e-01|  5.0000e-01|   -7.854542|   -8.001010|   -8.415843|   -8.134137|   -8.116320|  -10.101855|    1.758046|
|         247|  8.4131e+00|  3.2026e-09|  7.6103e-01|  5.0000e-01|  5.0000e-01|  5.0000e-01|   -7.854456|   -8.001066|   -8.415537|   -8.134206|   -8.116371|  -10.102085|    1.758047|
|         248|  8.4119e+00|  3.2026e-09|  7.6103e-01|  5.0000e-01|  5.0000e-01|  5.0000e-01|   -7.854362|   -8.001113|   -8.415227|   -8.134266|   -8.116415|  -10.102314|    1.758047|
|         249|  8.4112e+00|  3.2026e-09|  7.6103e-01|  5.0000e-01|  5.0000e-01|  5.0000e-01|   -7.854258|   -8.001149|   -8.414915|   -8.134316|   -8.116452|  -10.102544|    1.758048|
|         250|  8.4098e+00|  3.2025e-09|  7.6103e-01|  5.0000e-01|  5.0000e-01|  5.0000e-01|   -7.854145|   -8.001174|   -8.414600|   -8.134357|   -8.116481|  -10.102773|    1.758048|
|         251|  8.4084e+00|  3.2025e-09|  7.6103e-01|  5.0000e-01|  5.0000e-01|  5.0000e-01|   -7.854023|   -8.001189|   -8.414282|   -8.134388|   -8.116502|  -10.103003|    1.758048|
|         252|  8.4067e+00|  3.2025e-09|  7.6103e-01|  5.0000e-01|  5.0000e-01|  5.0000e-01|   -7.853891|   -8.001194|   -8.413962|   -8.134409|   -8.116516|  -10.103233|    1.758049|
|         253|  8.4060e+00|  3.2024e-09|  7.6103e-01|  5.0000e-01|  5.0000e-01|  5.0000e-01|   -7.853750|   -8.001187|   -8.413638|   -8.134421|   -8.116523|  -10.103463|    1.758049|
|         254|  8.4040e+00|  3.2024e-09|  7.6103e-01|  5.0000e-01|  5.0000e-01|  5.0000e-01|   -7.853600|   -8.001170|   -8.413313|   -8.134423|   -8.116521|  -10.103693|    1.758050|
|         255|  8.4037e+00|  3.2024e-09|  7.6103e-01|  5.0000e-01|  5.0000e-01|  5.0000e-01|   -7.853440|   -8.001143|   -8.412984|   -8.134415|   -8.116513|  -10.103923|    1.758050|
|         256|  8.4027e+00|  3.2024e-09|  7.6103e-01|  5.0000e-01|  5.0000e-01|  5.0000e-01|   -7.853271|   -8.001104|   -8.412653|   -8.134397|   -8.116496|  -10.104153|    1.758050|
|         257|  8.4021e+00|  3.2023e-09|  7.6103e-01|  5.0000e-01|  5.0000e-01|  5.0000e-01|   -7.853093|   -8.001055|   -8.412320|   -8.134369|   -8.116472|  -10.104383|    1.758051|
|         258|  8.4019e+00|  3.2023e-09|  7.6103e-01|  5.0000e-01|  5.0000e-01|  5.0000e-01|   -7.852905|   -8.000995|   -8.411984|   -8.134331|   -8.116440|  -10.104613|    1.758051|
|         259|  8.4018e+00|  3.2023e-09|  7.6103e-01|  5.0000e-01|  5.0000e-01|  5.0000e-01|   -7.852708|   -8.000924|   -8.411645|   -8.134283|   -8.116400|  -10.104843|    1.758052|
|         260|  8.4014e+00|  3.2022e-09|  7.6103e-01|  5.0000e-01|  5.0000e-01|  5.0000e-01|   -7.852501|   -8.000843|   -8.411304|   -8.134225|   -8.116353|  -10.105073|    1.758052|
|         261|  8.4011e+00|  3.2022e-09|  7.6103e-01|  5.0000e-01|  5.0000e-01|  5.0000e-01|   -7.852285|   -8.000750|   -8.410961|   -8.134157|   -8.116298|  -10.105303|    1.758052|
|         262|  8.4020e+00|  3.2022e-09|  7.6103e-01|  5.0000e-01|  5.0000e-01|  5.0000e-01|   -7.852060|   -8.000646|   -8.410615|   -8.134079|   -8.116235|  -10.105534|    1.758053|
|         263|  8.4025e+00|  3.2022e-09|  7.6103e-01|  5.0000e-01|  5.0000e-01|  5.0000e-01|   -7.851825|   -8.000532|   -8.410266|   -8.133990|   -8.116164|  -10.105764|    1.758053|
|         264|  8.4027e+00|  3.2021e-09|  7.6103e-01|  5.0000e-01|  5.0000e-01|  5.0000e-01|   -7.851581|   -8.000406|   -8.409916|   -8.133892|   -8.116085|  -10.105994|    1.758054|
|         265|  8.4010e+00|  3.2021e-09|  7.6103e-01|  5.0000e-01|  5.0000e-01|  5.0000e-01|   -7.851327|   -8.000270|   -8.409563|   -8.133783|   -8.115998|  -10.106224|    1.758054|
|         266|  8.3996e+00|  3.2021e-09|  7.6103e-01|  5.0000e-01|  5.0000e-01|  5.0000e-01|   -7.851065|   -8.000122|   -8.409208|   -8.133664|   -8.115903|  -10.106455|    1.758054|
|         267|  8.3981e+00|  3.2020e-09|  7.6103e-01|  5.0000e-01|  5.0000e-01|  5.0000e-01|   -7.850793|   -7.999964|   -8.408850|   -8.133535|   -8.115801|  -10.106685|    1.758055|
|         268|  8.3962e+00|  3.2020e-09|  7.6103e-01|  5.0000e-01|  5.0000e-01|  5.0000e-01|   -7.850511|   -7.999794|   -8.408491|   -8.133395|   -8.115690|  -10.106915|    1.758055|
|         269|  8.3952e+00|  3.2020e-09|  7.6103e-01|  5.0000e-01|  5.0000e-01|  5.0000e-01|   -7.850220|   -7.999614|   -8.408129|   -8.133245|   -8.115572|  -10.107145|    1.758056|
|         270|  8.3958e+00|  3.2020e-09|  7.6103e-01|  5.0000e-01|  5.0000e-01|  5.0000e-01|   -7.849920|   -7.999422|   -8.407765|   -8.133085|   -8.115446|  -10.107376|    1.758056|
|         271|  8.3956e+00|  3.2019e-09|  7.6103e-01|  5.0000e-01|  5.0000e-01|  5.0000e-01|   -7.849611|   -7.999220|   -8.407399|   -8.132915|   -8.115311|  -10.107606|    1.758056|
|         272|  8.3953e+00|  3.2019e-09|  7.6103e-01|  5.0000e-01|  5.0000e-01|  5.0000e-01|   -7.849293|   -7.999006|   -8.407031|   -8.132734|   -8.115169|  -10.107836|    1.758057|
|         273|  8.3943e+00|  3.2019e-09|  7.6103e-01|  5.0000e-01|  5.0000e-01|  5.0000e-01|   -7.848965|   -7.998782|   -8.406661|   -8.132542|   -8.115019|  -10.108066|    1.758057|
|         274|  8.3934e+00|  3.2018e-09|  7.6103e-01|  5.0000e-01|  5.0000e-01|  5.0000e-01|   -7.848628|   -7.998546|   -8.406289|   -8.132341|   -8.114861|  -10.108297|    1.758057|
|         275|  8.3921e+00|  3.2018e-09|  7.6103e-01|  5.0000e-01|  5.0000e-01|  5.0000e-01|   -7.848282|   -7.998300|   -8.405915|   -8.132129|   -8.114694|  -10.108527|    1.758058|
|         276|  8.3905e+00|  3.2018e-09|  7.6103e-01|  5.0000e-01|  5.0000e-01|  5.0000e-01|   -7.847927|   -7.998043|   -8.405539|   -8.131907|   -8.114520|  -10.108757|    1.758058|
|         277|  8.3889e+00|  3.2018e-09|  7.6103e-01|  5.0000e-01|  5.0000e-01|  5.0000e-01|   -7.847563|   -7.997774|   -8.405161|   -8.131674|   -8.114338|  -10.108987|    1.758059|
|         278|  8.3876e+00|  3.2017e-09|  7.6103e-01|  5.0000e-01|  5.0000e-01|  5.0000e-01|   -7.847190|   -7.997495|   -8.404781|   -8.131431|   -8.114148|  -10.109217|    1.758059|
|         279|  8.3862e+00|  3.2017e-09|  7.6103e-01|  5.0000e-01|  5.0000e-01|  5.0000e-01|   -7.846808|   -7.997205|   -8.404399|   -8.131177|   -8.113950|  -10.109448|    1.758059|
|         280|  8.3848e+00|  3.2017e-09|  7.6103e-01|  5.0000e-01|  5.0000e-01|  5.0000e-01|   -7.846417|   -7.996904|   -8.404016|   -8.130914|   -8.113744|  -10.109678|    1.758060|
|         281|  8.3830e+00|  3.2016e-09|  7.6103e-01|  5.0000e-01|  5.0000e-01|  5.0000e-01|   -7.846017|   -7.996592|   -8.403631|   -8.130640|   -8.113529|  -10.109908|    1.758060|
|         282|  8.3816e+00|  3.2016e-09|  7.6103e-01|  5.0000e-01|  5.0000e-01|  5.0000e-01|   -7.845608|   -7.996270|   -8.403244|   -8.130355|   -8.113307|  -10.110138|    1.758060|
|         283|  8.3797e+00|  3.2016e-09|  7.6103e-01|  5.0000e-01|  5.0000e-01|  5.0000e-01|   -7.845190|   -7.995937|   -8.402855|   -8.130061|   -8.113077|  -10.110368|    1.758061|
|         284|  8.3787e+00|  3.2016e-09|  7.6103e-01|  5.0000e-01|  5.0000e-01|  5.0000e-01|   -7.844764|   -7.995593|   -8.402465|   -8.129756|   -8.112840|  -10.110598|    1.758061|
|         285|  8.3772e+00|  3.2015e-09|  7.6103e-01|  5.0000e-01|  5.0000e-01|  5.0000e-01|   -7.844329|   -7.995238|   -8.402073|   -8.129440|   -8.112594|  -10.110827|    1.758062|
|         286|  8.3759e+00|  3.2015e-09|  7.6103e-01|  5.0000e-01|  5.0000e-01|  5.0000e-01|   -7.843885|   -7.994872|   -8.401679|   -8.129115|   -8.112340|  -10.111057|    1.758062|
|         287|  8.3744e+00|  3.2015e-09|  7.6103e-01|  5.0000e-01|  5.0000e-01|  5.0000e-01|   -7.843433|   -7.994496|   -8.401284|   -8.128779|   -8.112078|  -10.111287|    1.758062|
|         288|  8.3726e+00|  3.2014e-09|  7.6103e-01|  5.0000e-01|  5.0000e-01|  5.0000e-01|   -7.842971|   -7.994110|   -8.400887|   -8.128434|   -8.111809|  -10.111517|    1.758063|
|         289|  8.3711e+00|  3.2014e-09|  7.6103e-01|  5.0000e-01|  5.0000e-01|  5.0000e-01|   -7.842502|   -7.993713|   -8.400489|   -8.128077|   -8.111531|  -10.111746|    1.758063|
|         290|  8.3702e+00|  3.2014e-09|  7.6103e-01|  5.0000e-01|  5.0000e-01|  5.0000e-01|   -7.842024|   -7.993305|   -8.400089|   -8.127711|   -8.111246|  -10.111976|    1.758063|
|         291|  8.3687e+00|  3.2014e-09|  7.6103e-01|  5.0000e-01|  5.0000e-01|  5.0000e-01|   -7.841537|   -7.992887|   -8.399688|   -8.127335|   -8.110953|  -10.112205|    1.758064|
|         292|  8.3669e+00|  3.2013e-09|  7.6103e-01|  5.0000e-01|  5.0000e-01|  5.0000e-01|   -7.841042|   -7.992459|   -8.399286|   -8.126949|   -8.110652|  -10.112435|    1.758064|
|         293|  8.3671e+00|  3.2013e-09|  7.6103e-01|  5.0000e-01|  5.0000e-01|  5.0000e-01|   -7.840539|   -7.992020|   -8.398882|   -8.126552|   -8.110343|  -10.112664|    1.758064|
|         294|  8.3668e+00|  3.2013e-09|  7.6103e-01|  5.0000e-01|  5.0000e-01|  5.0000e-01|   -7.840028|   -7.991571|   -8.398476|   -8.126146|   -8.110026|  -10.112893|    1.758065|
|         295|  8.3661e+00|  3.2012e-09|  7.6103e-01|  5.0000e-01|  5.0000e-01|  5.0000e-01|   -7.839508|   -7.991111|   -8.398070|   -8.125729|   -8.109702|  -10.113122|    1.758065|
|         296|  8.3652e+00|  3.2012e-09|  7.6103e-01|  5.0000e-01|  5.0000e-01|  5.0000e-01|   -7.838980|   -7.990642|   -8.397662|   -8.125303|   -8.109370|  -10.113351|    1.758066|
|         297|  8.3642e+00|  3.2012e-09|  7.6103e-01|  5.0000e-01|  5.0000e-01|  5.0000e-01|   -7.838444|   -7.990162|   -8.397253|   -8.124867|   -8.109030|  -10.113580|    1.758066|
|         298|  8.3630e+00|  3.2012e-09|  7.6103e-01|  5.0000e-01|  5.0000e-01|  5.0000e-01|   -7.837900|   -7.989672|   -8.396843|   -8.124421|   -8.108683|  -10.113809|    1.758066|
|         299|  8.3614e+00|  3.2011e-09|  7.6103e-01|  5.0000e-01|  5.0000e-01|  5.0000e-01|   -7.837349|   -7.989172|   -8.396431|   -8.123965|   -8.108328|  -10.114038|    1.758067|
|         300|  8.3597e+00|  3.2011e-09|  7.6103e-01|  5.0000e-01|  5.0000e-01|  5.0000e-01|   -7.836789|   -7.988663|   -8.396019|   -8.123499|   -8.107965|  -10.114266|    1.758067|
+-----------------------------------------------------------------------+
|        File Writing Summary       |              Filename             |
+-----------------------------------------------------------------------+
|SU2 binary restart                 |restart_flow.dat                   |
|Paraview                           |flow.vtu                           |
|Paraview surface                   |surface_flow.vtu                   |
+-----------------------------------------------------------------------+
+-------------------------------------------------------------------------------------------------------------------------------------------------------------------------------------+
|  Inner_Iter|   Time(sec)|      Min DT|      Max DT|     Min CFL|     Max CFL|     Avg CFL|    rms[Rho]|   rms[RhoU]|   rms[RhoV]|   rms[RhoW]|   rms[RhoE]|     rms[nu]|          CD|
+-------------------------------------------------------------------------------------------------------------------------------------------------------------------------------------+
|         301|  8.4315e+00|  3.2011e-09|  7.6103e-01|  5.0000e-01|  5.0000e-01|  5.0000e-01|   -7.836222|   -7.988143|   -8.395605|   -8.123024|   -8.107595|  -10.114495|    1.758067|
|         302|  8.4312e+00|  3.2010e-09|  7.6103e-01|  5.0000e-01|  5.0000e-01|  5.0000e-01|   -7.835647|   -7.987614|   -8.395191|   -8.122539|   -8.107217|  -10.114723|    1.758068|
|         303|  8.4311e+00|  3.2010e-09|  7.6103e-01|  5.0000e-01|  5.0000e-01|  5.0000e-01|   -7.835064|   -7.987075|   -8.394775|   -8.122045|   -8.106831|  -10.114952|    1.758068|
|         304|  8.4297e+00|  3.2010e-09|  7.6103e-01|  5.0000e-01|  5.0000e-01|  5.0000e-01|   -7.834473|   -7.986526|   -8.394358|   -8.121541|   -8.106438|  -10.115180|    1.758068|
|         305|  8.4286e+00|  3.2009e-09|  7.6103e-01|  5.0000e-01|  5.0000e-01|  5.0000e-01|   -7.833876|   -7.985968|   -8.393941|   -8.121028|   -8.106038|  -10.115408|    1.758069|
|         306|  8.4277e+00|  3.2009e-09|  7.6103e-01|  5.0000e-01|  5.0000e-01|  5.0000e-01|   -7.833270|   -7.985400|   -8.393522|   -8.120505|   -8.105630|  -10.115636|    1.758069|
|         307|  8.4263e+00|  3.2009e-09|  7.6103e-01|  5.0000e-01|  5.0000e-01|  5.0000e-01|   -7.832658|   -7.984823|   -8.393103|   -8.119973|   -8.105215|  -10.115864|    1.758069|
|         308|  8.4249e+00|  3.2009e-09|  7.6103e-01|  5.0000e-01|  5.0000e-01|  5.0000e-01|   -7.832038|   -7.984237|   -8.392682|   -8.119432|   -8.104793|  -10.116091|    1.758070|
|         309|  8.4233e+00|  3.2008e-09|  7.6103e-01|  5.0000e-01|  5.0000e-01|  5.0000e-01|   -7.831411|   -7.983641|   -8.392261|   -8.118882|   -8.104363|  -10.116319|    1.758070|
|         310|  8.4223e+00|  3.2008e-09|  7.6103e-01|  5.0000e-01|  5.0000e-01|  5.0000e-01|   -7.830777|   -7.983037|   -8.391839|   -8.118322|   -8.103927|  -10.116546|    1.758070|
|         311|  8.4210e+00|  3.2008e-09|  7.6103e-01|  5.0000e-01|  5.0000e-01|  5.0000e-01|   -7.830136|   -7.982423|   -8.391416|   -8.117754|   -8.103483|  -10.116773|    1.758071|
|         312|  8.4198e+00|  3.2007e-09|  7.6103e-01|  5.0000e-01|  5.0000e-01|  5.0000e-01|   -7.829488|   -7.981800|   -8.390993|   -8.117177|   -8.103031|  -10.117001|    1.758071|
|         313|  8.4191e+00|  3.2007e-09|  7.6103e-01|  5.0000e-01|  5.0000e-01|  5.0000e-01|   -7.828833|   -7.981169|   -8.390569|   -8.116591|   -8.102573|  -10.117228|    1.758071|
|         314|  8.4198e+00|  3.2007e-09|  7.6103e-01|  5.0000e-01|  5.0000e-01|  5.0000e-01|   -7.828171|   -7.980529|   -8.390144|   -8.115996|   -8.102108|  -10.117454|    1.758072|
|         315|  8.4196e+00|  3.2007e-09|  7.6103e-01|  5.0000e-01|  5.0000e-01|  5.0000e-01|   -7.827503|   -7.979880|   -8.389719|   -8.115392|   -8.101636|  -10.117681|    1.758072|
|         316|  8.4188e+00|  3.2006e-09|  7.6103e-01|  5.0000e-01|  5.0000e-01|  5.0000e-01|   -7.826828|   -7.979223|   -8.389293|   -8.114780|   -8.101157|  -10.117908|    1.758072|
|         317|  8.4181e+00|  3.2006e-09|  7.6103e-01|  5.0000e-01|  5.0000e-01|  5.0000e-01|   -7.826147|   -7.978557|   -8.388867|   -8.114160|   -8.100671|  -10.118134|    1.758073|
|         318|  8.4174e+00|  3.2006e-09|  7.6103e-01|  5.0000e-01|  5.0000e-01|  5.0000e-01|   -7.825459|   -7.977882|   -8.388440|   -8.113531|   -8.100179|  -10.118360|    1.758073|
|         319|  8.4160e+00|  3.2005e-09|  7.6103e-01|  5.0000e-01|  5.0000e-01|  5.0000e-01|   -7.824765|   -7.977200|   -8.388012|   -8.112893|   -8.099680|  -10.118586|    1.758073|
|         320|  8.4155e+00|  3.2005e-09|  7.6103e-01|  5.0000e-01|  5.0000e-01|  5.0000e-01|   -7.824065|   -7.976509|   -8.387584|   -8.112248|   -8.099174|  -10.118812|    1.758074|
|         321|  8.4141e+00|  3.2005e-09|  7.6103e-01|  5.0000e-01|  5.0000e-01|  5.0000e-01|   -7.823359|   -7.975811|   -8.387156|   -8.111594|   -8.098661|  -10.119038|    1.758074|
|         322|  8.4132e+00|  3.2005e-09|  7.6103e-01|  5.0000e-01|  5.0000e-01|  5.0000e-01|   -7.822646|   -7.975104|   -8.386728|   -8.110932|   -8.098142|  -10.119263|    1.758074|
|         323|  8.4116e+00|  3.2004e-09|  7.6103e-01|  5.0000e-01|  5.0000e-01|  5.0000e-01|   -7.821928|   -7.974390|   -8.386299|   -8.110263|   -8.097617|  -10.119489|    1.758075|
|         324|  8.4100e+00|  3.2004e-09|  7.6103e-01|  5.0000e-01|  5.0000e-01|  5.0000e-01|   -7.821204|   -7.973668|   -8.385869|   -8.109585|   -8.097085|  -10.119714|    1.758075|
|         325|  8.4088e+00|  3.2004e-09|  7.6103e-01|  5.0000e-01|  5.0000e-01|  5.0000e-01|   -7.820474|   -7.972938|   -8.385440|   -8.108900|   -8.096547|  -10.119939|    1.758075|
|         326|  8.4075e+00|  3.2003e-09|  7.6103e-01|  5.0000e-01|  5.0000e-01|  5.0000e-01|   -7.819738|   -7.972201|   -8.385010|   -8.108207|   -8.096002|  -10.120163|    1.758076|
|         327|  8.4060e+00|  3.2003e-09|  7.6103e-01|  5.0000e-01|  5.0000e-01|  5.0000e-01|   -7.818997|   -7.971456|   -8.384580|   -8.107506|   -8.095451|  -10.120388|    1.758076|
|         328|  8.4045e+00|  3.2003e-09|  7.6103e-01|  5.0000e-01|  5.0000e-01|  5.0000e-01|   -7.818250|   -7.970704|   -8.384150|   -8.106798|   -8.094894|  -10.120612|    1.758076|
|         329|  8.4031e+00|  3.2003e-09|  7.6103e-01|  5.0000e-01|  5.0000e-01|  5.0000e-01|   -7.817498|   -7.969945|   -8.383719|   -8.106082|   -8.094331|  -10.120837|    1.758077|
|         330|  8.4016e+00|  3.2002e-09|  7.6103e-01|  5.0000e-01|  5.0000e-01|  5.0000e-01|   -7.816740|   -7.969179|   -8.383289|   -8.105359|   -8.093762|  -10.121061|    1.758077|
|         331|  8.4001e+00|  3.2002e-09|  7.6103e-01|  5.0000e-01|  5.0000e-01|  5.0000e-01|   -7.815978|   -7.968405|   -8.382858|   -8.104629|   -8.093187|  -10.121284|    1.758077|
|         332|  8.3984e+00|  3.2002e-09|  7.6103e-01|  5.0000e-01|  5.0000e-01|  5.0000e-01|   -7.815210|   -7.967625|   -8.382428|   -8.103892|   -8.092606|  -10.121508|    1.758078|
|         333|  8.3968e+00|  3.2001e-09|  7.6103e-01|  5.0000e-01|  5.0000e-01|  5.0000e-01|   -7.814437|   -7.966838|   -8.381997|   -8.103148|   -8.092019|  -10.121731|    1.758078|
|         334|  8.3956e+00|  3.2001e-09|  7.6103e-01|  5.0000e-01|  5.0000e-01|  5.0000e-01|   -7.813659|   -7.966044|   -8.381567|   -8.102397|   -8.091427|  -10.121954|    1.758078|
|         335|  8.3945e+00|  3.2001e-09|  7.6103e-01|  5.0000e-01|  5.0000e-01|  5.0000e-01|   -7.812876|   -7.965244|   -8.381136|   -8.101639|   -8.090828|  -10.122177|    1.758078|
|         336|  8.3934e+00|  3.2001e-09|  7.6103e-01|  5.0000e-01|  5.0000e-01|  5.0000e-01|   -7.812089|   -7.964437|   -8.380706|   -8.100874|   -8.090224|  -10.122400|    1.758079|
|         337|  8.3922e+00|  3.2000e-09|  7.6103e-01|  5.0000e-01|  5.0000e-01|  5.0000e-01|   -7.811297|   -7.963624|   -8.380275|   -8.100103|   -8.089615|  -10.122623|    1.758079|
|         338|  8.3911e+00|  3.2000e-09|  7.6103e-01|  5.0000e-01|  5.0000e-01|  5.0000e-01|   -7.810500|   -7.962805|   -8.379845|   -8.099325|   -8.089000|  -10.122845|    1.758079|
|         339|  8.3900e+00|  3.2000e-09|  7.6103e-01|  5.0000e-01|  5.0000e-01|  5.0000e-01|   -7.809699|   -7.961979|   -8.379415|   -8.098541|   -8.088379|  -10.123067|    1.758080|
|         340|  8.3884e+00|  3.1999e-09|  7.6103e-01|  5.0000e-01|  5.0000e-01|  5.0000e-01|   -7.808893|   -7.961148|   -8.378985|   -8.097750|   -8.087753|  -10.123289|    1.758080|
|         341|  8.3869e+00|  3.1999e-09|  7.6103e-01|  5.0000e-01|  5.0000e-01|  5.0000e-01|   -7.808083|   -7.960310|   -8.378555|   -8.096953|   -8.087122|  -10.123510|    1.758080|
|         342|  8.3853e+00|  3.1999e-09|  7.6103e-01|  5.0000e-01|  5.0000e-01|  5.0000e-01|   -7.807269|   -7.959467|   -8.378125|   -8.096150|   -8.086485|  -10.123732|    1.758081|
|         343|  8.3841e+00|  3.1999e-09|  7.6103e-01|  5.0000e-01|  5.0000e-01|  5.0000e-01|   -7.806450|   -7.958618|   -8.377696|   -8.095341|   -8.085844|  -10.123953|    1.758081|
|         344|  8.3828e+00|  3.1998e-09|  7.6103e-01|  5.0000e-01|  5.0000e-01|  5.0000e-01|   -7.805628|   -7.957764|   -8.377267|   -8.094527|   -8.085197|  -10.124173|    1.758081|
|         345|  8.3813e+00|  3.1998e-09|  7.6103e-01|  5.0000e-01|  5.0000e-01|  5.0000e-01|   -7.804802|   -7.956904|   -8.376839|   -8.093706|   -8.084545|  -10.124394|    1.758081|
|         346|  8.3804e+00|  3.1998e-09|  7.6103e-01|  5.0000e-01|  5.0000e-01|  5.0000e-01|   -7.803972|   -7.956039|   -8.376411|   -8.092880|   -8.083889|  -10.124614|    1.758082|
|         347|  8.3789e+00|  3.1997e-09|  7.6103e-01|  5.0000e-01|  5.0000e-01|  5.0000e-01|   -7.803138|   -7.955168|   -8.375983|   -8.092048|   -8.083227|  -10.124834|    1.758082|
|         348|  8.3773e+00|  3.1997e-09|  7.6103e-01|  5.0000e-01|  5.0000e-01|  5.0000e-01|   -7.802300|   -7.954293|   -8.375556|   -8.091211|   -8.082561|  -10.125054|    1.758082|
|         349|  8.3758e+00|  3.1997e-09|  7.6103e-01|  5.0000e-01|  5.0000e-01|  5.0000e-01|   -7.801459|   -7.953412|   -8.375129|   -8.090369|   -8.081890|  -10.125274|    1.758083|
[...]
|        5695|  7.9583e+00|  3.0573e-09|  7.6103e-01|  5.0000e-01|  5.0000e-01|  5.0000e-01|   -7.776448|   -7.884665|   -8.470600|   -8.025722|   -8.027981|  -10.227333|    1.757968|
|        5696|  7.9582e+00|  3.0573e-09|  7.6103e-01|  5.0000e-01|  5.0000e-01|  5.0000e-01|   -7.777182|   -7.885400|   -8.470886|   -8.026355|   -8.028564|  -10.227743|    1.757968|
|        5697|  7.9582e+00|  3.0573e-09|  7.6103e-01|  5.0000e-01|  5.0000e-01|  5.0000e-01|   -7.777917|   -7.886136|   -8.471171|   -8.026987|   -8.029148|  -10.228154|    1.757968|
|        5698|  7.9582e+00|  3.0572e-09|  7.6103e-01|  5.0000e-01|  5.0000e-01|  5.0000e-01|   -7.778650|   -7.886872|   -8.471456|   -8.027618|   -8.029732|  -10.228565|    1.757968|
|        5699|  7.9582e+00|  3.0572e-09|  7.6103e-01|  5.0000e-01|  5.0000e-01|  5.0000e-01|   -7.779384|   -7.887610|   -8.471740|   -8.028248|   -8.030317|  -10.228978|    1.757967|
|        5700|  7.9581e+00|  3.0572e-09|  7.6103e-01|  5.0000e-01|  5.0000e-01|  5.0000e-01|   -7.780116|   -7.888349|   -8.472024|   -8.028878|   -8.030903|  -10.229391|    1.757967|
+-----------------------------------------------------------------------+
|        File Writing Summary       |              Filename             |
+-----------------------------------------------------------------------+
|SU2 binary restart                 |restart_flow.dat                   |
|Paraview                           |flow.vtu                           |
|Paraview surface                   |surface_flow.vtu                   |
+-----------------------------------------------------------------------+
+-------------------------------------------------------------------------------------------------------------------------------------------------------------------------------------+
|  Inner_Iter|   Time(sec)|      Min DT|      Max DT|     Min CFL|     Max CFL|     Avg CFL|    rms[Rho]|   rms[RhoU]|   rms[RhoV]|   rms[RhoW]|   rms[RhoE]|     rms[nu]|          CD|
+-------------------------------------------------------------------------------------------------------------------------------------------------------------------------------------+
|        5701|  1.1121e+01|  3.0572e-09|  7.6103e-01|  5.0000e-01|  5.0000e-01|  5.0000e-01|   -7.780848|   -7.889088|   -8.472307|   -8.029507|   -8.031489|  -10.229805|    1.757967|
|        5702|  1.1120e+01|  3.0571e-09|  7.6103e-01|  5.0000e-01|  5.0000e-01|  5.0000e-01|   -7.781580|   -7.889829|   -8.472590|   -8.030134|   -8.032075|  -10.230220|    1.757967|
|        5703|  1.1120e+01|  3.0571e-09|  7.6103e-01|  5.0000e-01|  5.0000e-01|  5.0000e-01|   -7.782310|   -7.890570|   -8.472872|   -8.030761|   -8.032662|  -10.230636|    1.757967|
|        5704|  1.1119e+01|  3.0571e-09|  7.6103e-01|  5.0000e-01|  5.0000e-01|  5.0000e-01|   -7.783040|   -7.891313|   -8.473154|   -8.031387|   -8.033250|  -10.231053|    1.757967|
|        5705|  1.1119e+01|  3.0571e-09|  7.6103e-01|  5.0000e-01|  5.0000e-01|  5.0000e-01|   -7.783769|   -7.892056|   -8.473435|   -8.032013|   -8.033837|  -10.231470|    1.757966|
|        5706|  1.1118e+01|  3.0570e-09|  7.6103e-01|  5.0000e-01|  5.0000e-01|  5.0000e-01|   -7.784497|   -7.892800|   -8.473716|   -8.032637|   -8.034425|  -10.231888|    1.757966|
|        5707|  1.1117e+01|  3.0570e-09|  7.6103e-01|  5.0000e-01|  5.0000e-01|  5.0000e-01|   -7.785225|   -7.893544|   -8.473996|   -8.033259|   -8.035014|  -10.232307|    1.757966|
|        5708|  1.1117e+01|  3.0570e-09|  7.6103e-01|  5.0000e-01|  5.0000e-01|  5.0000e-01|   -7.785951|   -7.894289|   -8.474275|   -8.033881|   -8.035603|  -10.232726|    1.757966|
|        5709|  1.1116e+01|  3.0570e-09|  7.6103e-01|  5.0000e-01|  5.0000e-01|  5.0000e-01|   -7.786676|   -7.895035|   -8.474554|   -8.034502|   -8.036192|  -10.233146|    1.757966|
|        5710|  1.1116e+01|  3.0569e-09|  7.6103e-01|  5.0000e-01|  5.0000e-01|  5.0000e-01|   -7.787400|   -7.895782|   -8.474832|   -8.035121|   -8.036781|  -10.233566|    1.757966|
|        5711|  1.1115e+01|  3.0569e-09|  7.6103e-01|  5.0000e-01|  5.0000e-01|  5.0000e-01|   -7.788123|   -7.896529|   -8.475110|   -8.035739|   -8.037371|  -10.233988|    1.757965|
|        5712|  1.1115e+01|  3.0569e-09|  7.6103e-01|  5.0000e-01|  5.0000e-01|  5.0000e-01|   -7.788845|   -7.897276|   -8.475387|   -8.036356|   -8.037960|  -10.234409|    1.757965|
|        5713|  1.1114e+01|  3.0569e-09|  7.6103e-01|  5.0000e-01|  5.0000e-01|  5.0000e-01|   -7.789566|   -7.898024|   -8.475664|   -8.036972|   -8.038550|  -10.234831|    1.757965|
|        5714|  1.1113e+01|  3.0568e-09|  7.6103e-01|  5.0000e-01|  5.0000e-01|  5.0000e-01|   -7.790285|   -7.898773|   -8.475939|   -8.037586|   -8.039140|  -10.235254|    1.757965|
|        5715|  1.1113e+01|  3.0568e-09|  7.6103e-01|  5.0000e-01|  5.0000e-01|  5.0000e-01|   -7.791003|   -7.899522|   -8.476215|   -8.038198|   -8.039731|  -10.235677|    1.757965|
|        5716|  1.1112e+01|  3.0568e-09|  7.6103e-01|  5.0000e-01|  5.0000e-01|  5.0000e-01|   -7.791719|   -7.900271|   -8.476489|   -8.038810|   -8.040321|  -10.236101|    1.757964|
|        5717|  1.1112e+01|  3.0568e-09|  7.6103e-01|  5.0000e-01|  5.0000e-01|  5.0000e-01|   -7.792434|   -7.901021|   -8.476763|   -8.039419|   -8.040911|  -10.236525|    1.757964|
|        5718|  1.1111e+01|  3.0567e-09|  7.6103e-01|  5.0000e-01|  5.0000e-01|  5.0000e-01|   -7.793148|   -7.901770|   -8.477037|   -8.040027|   -8.041501|  -10.236949|    1.757964|
|        5719|  1.1111e+01|  3.0567e-09|  7.6103e-01|  5.0000e-01|  5.0000e-01|  5.0000e-01|   -7.793860|   -7.902520|   -8.477309|   -8.040634|   -8.042092|  -10.237374|    1.757964|
|        5720|  1.1110e+01|  3.0567e-09|  7.6103e-01|  5.0000e-01|  5.0000e-01|  5.0000e-01|   -7.794570|   -7.903271|   -8.477581|   -8.041239|   -8.042682|  -10.237799|    1.757964|
|        5721|  1.1109e+01|  3.0567e-09|  7.6103e-01|  5.0000e-01|  5.0000e-01|  5.0000e-01|   -7.795279|   -7.904021|   -8.477853|   -8.041842|   -8.043272|  -10.238225|    1.757964|
|        5722|  1.1109e+01|  3.0566e-09|  7.6103e-01|  5.0000e-01|  5.0000e-01|  5.0000e-01|   -7.795986|   -7.904772|   -8.478123|   -8.042443|   -8.043862|  -10.238650|    1.757963|
|        5723|  1.1108e+01|  3.0566e-09|  7.6103e-01|  5.0000e-01|  5.0000e-01|  5.0000e-01|   -7.796691|   -7.905522|   -8.478394|   -8.043043|   -8.044452|  -10.239076|    1.757963|
|        5724|  1.1108e+01|  3.0566e-09|  7.6103e-01|  5.0000e-01|  5.0000e-01|  5.0000e-01|   -7.797395|   -7.906273|   -8.478663|   -8.043641|   -8.045041|  -10.239502|    1.757963|
|        5725|  1.1107e+01|  3.0566e-09|  7.6103e-01|  5.0000e-01|  5.0000e-01|  5.0000e-01|   -7.798096|   -7.907023|   -8.478932|   -8.044237|   -8.045631|  -10.239929|    1.757963|
|        5726|  1.1106e+01|  3.0565e-09|  7.6103e-01|  5.0000e-01|  5.0000e-01|  5.0000e-01|   -7.798796|   -7.907774|   -8.479200|   -8.044831|   -8.046220|  -10.240355|    1.757963|
|        5727|  1.1106e+01|  3.0565e-09|  7.6103e-01|  5.0000e-01|  5.0000e-01|  5.0000e-01|   -7.799493|   -7.908524|   -8.479467|   -8.045423|   -8.046809|  -10.240782|    1.757963|
|        5728|  1.1105e+01|  3.0565e-09|  7.6103e-01|  5.0000e-01|  5.0000e-01|  5.0000e-01|   -7.800189|   -7.909274|   -8.479734|   -8.046014|   -8.047398|  -10.241209|    1.757962|
|        5729|  1.1105e+01|  3.0565e-09|  7.6103e-01|  5.0000e-01|  5.0000e-01|  5.0000e-01|   -7.800882|   -7.910024|   -8.480000|   -8.046602|   -8.047986|  -10.241636|    1.757962|
|        5730|  1.1104e+01|  3.0564e-09|  7.6103e-01|  5.0000e-01|  5.0000e-01|  5.0000e-01|   -7.801573|   -7.910774|   -8.480265|   -8.047188|   -8.048574|  -10.242063|    1.757962|
|        5731|  1.1103e+01|  3.0564e-09|  7.6103e-01|  5.0000e-01|  5.0000e-01|  5.0000e-01|   -7.802262|   -7.911524|   -8.480530|   -8.047772|   -8.049162|  -10.242490|    1.757962|
|        5732|  1.1103e+01|  3.0564e-09|  7.6103e-01|  5.0000e-01|  5.0000e-01|  5.0000e-01|   -7.802949|   -7.912273|   -8.480794|   -8.048354|   -8.049749|  -10.242917|    1.757962|
|        5733|  1.1102e+01|  3.0564e-09|  7.6103e-01|  5.0000e-01|  5.0000e-01|  5.0000e-01|   -7.803634|   -7.913021|   -8.481057|   -8.048933|   -8.050336|  -10.243344|    1.757962|
|        5734|  1.1102e+01|  3.0563e-09|  7.6103e-01|  5.0000e-01|  5.0000e-01|  5.0000e-01|   -7.804316|   -7.913769|   -8.481320|   -8.049510|   -8.050922|  -10.243771|    1.757961|
|        5735|  1.1101e+01|  3.0563e-09|  7.6103e-01|  5.0000e-01|  5.0000e-01|  5.0000e-01|   -7.804995|   -7.914517|   -8.481582|   -8.050086|   -8.051507|  -10.244198|    1.757961|
|        5736|  1.1101e+01|  3.0563e-09|  7.6103e-01|  5.0000e-01|  5.0000e-01|  5.0000e-01|   -7.805672|   -7.915264|   -8.481843|   -8.050658|   -8.052092|  -10.244624|    1.757961|
|        5737|  1.1100e+01|  3.0563e-09|  7.6103e-01|  5.0000e-01|  5.0000e-01|  5.0000e-01|   -7.806347|   -7.916011|   -8.482104|   -8.051228|   -8.052677|  -10.245051|    1.757961|
|        5738|  1.1099e+01|  3.0562e-09|  7.6103e-01|  5.0000e-01|  5.0000e-01|  5.0000e-01|   -7.807019|   -7.916757|   -8.482363|   -8.051796|   -8.053261|  -10.245477|    1.757961|
|        5739|  1.1099e+01|  3.0562e-09|  7.6103e-01|  5.0000e-01|  5.0000e-01|  5.0000e-01|   -7.807688|   -7.917502|   -8.482622|   -8.052362|   -8.053844|  -10.245904|    1.757961|
|        5740|  1.1098e+01|  3.0562e-09|  7.6103e-01|  5.0000e-01|  5.0000e-01|  5.0000e-01|   -7.808355|   -7.918246|   -8.482881|   -8.052925|   -8.054426|  -10.246330|    1.757960|
|        5741|  1.1098e+01|  3.0562e-09|  7.6103e-01|  5.0000e-01|  5.0000e-01|  5.0000e-01|   -7.809018|   -7.918990|   -8.483138|   -8.053485|   -8.055008|  -10.246755|    1.757960|
|        5742|  1.1097e+01|  3.0561e-09|  7.6103e-01|  5.0000e-01|  5.0000e-01|  5.0000e-01|   -7.809679|   -7.919733|   -8.483395|   -8.054043|   -8.055589|  -10.247181|    1.757960|
|        5743|  1.1096e+01|  3.0561e-09|  7.6103e-01|  5.0000e-01|  5.0000e-01|  5.0000e-01|   -7.810337|   -7.920475|   -8.483651|   -8.054598|   -8.056169|  -10.247606|    1.757960|
|        5744|  1.1096e+01|  3.0561e-09|  7.6103e-01|  5.0000e-01|  5.0000e-01|  5.0000e-01|   -7.810993|   -7.921216|   -8.483907|   -8.055150|   -8.056748|  -10.248031|    1.757960|
|        5745|  1.1095e+01|  3.0561e-09|  7.6103e-01|  5.0000e-01|  5.0000e-01|  5.0000e-01|   -7.811645|   -7.921956|   -8.484162|   -8.055700|   -8.057327|  -10.248455|    1.757960|
|        5746|  1.1095e+01|  3.0560e-09|  7.6103e-01|  5.0000e-01|  5.0000e-01|  5.0000e-01|   -7.812294|   -7.922694|   -8.484416|   -8.056247|   -8.057904|  -10.248879|    1.757959|
|        5747|  1.1094e+01|  3.0560e-09|  7.6103e-01|  5.0000e-01|  5.0000e-01|  5.0000e-01|   -7.812939|   -7.923432|   -8.484669|   -8.056791|   -8.058481|  -10.249303|    1.757959|
|        5748|  1.1094e+01|  3.0560e-09|  7.6103e-01|  5.0000e-01|  5.0000e-01|  5.0000e-01|   -7.813582|   -7.924169|   -8.484921|   -8.057332|   -8.059056|  -10.249726|    1.757959|
|        5749|  1.1093e+01|  3.0560e-09|  7.6103e-01|  5.0000e-01|  5.0000e-01|  5.0000e-01|   -7.814222|   -7.924904|   -8.485173|   -8.057870|   -8.059631|  -10.250148|    1.757959|
|        5750|  1.1092e+01|  3.0559e-09|  7.6103e-01|  5.0000e-01|  5.0000e-01|  5.0000e-01|   -7.814858|   -7.925638|   -8.485424|   -8.058406|   -8.060204|  -10.250570|    1.757959|
|        5751|  1.1092e+01|  3.0559e-09|  7.6103e-01|  5.0000e-01|  5.0000e-01|  5.0000e-01|   -7.815491|   -7.926371|   -8.485674|   -8.058938|   -8.060777|  -10.250992|    1.757959|
|        5752|  1.1091e+01|  3.0559e-09|  7.6103e-01|  5.0000e-01|  5.0000e-01|  5.0000e-01|   -7.816120|   -7.927103|   -8.485923|   -8.059467|   -8.061348|  -10.251413|    1.757958|
|        5753|  1.1091e+01|  3.0559e-09|  7.6103e-01|  5.0000e-01|  5.0000e-01|  5.0000e-01|   -7.816746|   -7.927833|   -8.486172|   -8.059994|   -8.061918|  -10.251833|    1.757958|
|        5754|  1.1090e+01|  3.0558e-09|  7.6103e-01|  5.0000e-01|  5.0000e-01|  5.0000e-01|   -7.817368|   -7.928561|   -8.486420|   -8.060517|   -8.062487|  -10.252253|    1.757958|
|        5755|  1.1090e+01|  3.0558e-09|  7.6103e-01|  5.0000e-01|  5.0000e-01|  5.0000e-01|   -7.817987|   -7.929288|   -8.486667|   -8.061037|   -8.063054|  -10.252672|    1.757958|
|        5756|  1.1089e+01|  3.0558e-09|  7.6103e-01|  5.0000e-01|  5.0000e-01|  5.0000e-01|   -7.818603|   -7.930013|   -8.486914|   -8.061554|   -8.063621|  -10.253090|    1.757958|
|        5757|  1.1089e+01|  3.0558e-09|  7.6103e-01|  5.0000e-01|  5.0000e-01|  5.0000e-01|   -7.819214|   -7.930737|   -8.487159|   -8.062067|   -8.064186|  -10.253507|    1.757958|
|        5758|  1.1088e+01|  3.0557e-09|  7.6103e-01|  5.0000e-01|  5.0000e-01|  5.0000e-01|   -7.819822|   -7.931459|   -8.487404|   -8.062578|   -8.064750|  -10.253924|    1.757957|
|        5759|  1.1087e+01|  3.0557e-09|  7.6103e-01|  5.0000e-01|  5.0000e-01|  5.0000e-01|   -7.820426|   -7.932179|   -8.487648|   -8.063085|   -8.065312|  -10.254340|    1.757957|
|        5760|  1.1087e+01|  3.0557e-09|  7.6103e-01|  5.0000e-01|  5.0000e-01|  5.0000e-01|   -7.821026|   -7.932898|   -8.487891|   -8.063588|   -8.065873|  -10.254755|    1.757957|
|        5761|  1.1086e+01|  3.0557e-09|  7.6103e-01|  5.0000e-01|  5.0000e-01|  5.0000e-01|   -7.821622|   -7.933614|   -8.488134|   -8.064088|   -8.066432|  -10.255170|    1.757957|
|        5762|  1.1086e+01|  3.0556e-09|  7.6103e-01|  5.0000e-01|  5.0000e-01|  5.0000e-01|   -7.822215|   -7.934329|   -8.488376|   -8.064585|   -8.066990|  -10.255583|    1.757957|
|        5763|  1.1085e+01|  3.0556e-09|  7.6103e-01|  5.0000e-01|  5.0000e-01|  5.0000e-01|   -7.822803|   -7.935042|   -8.488617|   -8.065078|   -8.067547|  -10.255995|    1.757957|
|        5764|  1.1085e+01|  3.0556e-09|  7.6103e-01|  5.0000e-01|  5.0000e-01|  5.0000e-01|   -7.823387|   -7.935752|   -8.488857|   -8.065568|   -8.068102|  -10.256407|    1.757957|
|        5765|  1.1084e+01|  3.0556e-09|  7.6103e-01|  5.0000e-01|  5.0000e-01|  5.0000e-01|   -7.823967|   -7.936461|   -8.489096|   -8.066054|   -8.068655|  -10.256818|    1.757956|
|        5766|  1.1084e+01|  3.0555e-09|  7.6103e-01|  5.0000e-01|  5.0000e-01|  5.0000e-01|   -7.824543|   -7.937167|   -8.489335|   -8.066537|   -8.069207|  -10.257227|    1.757956|
|        5767|  1.1083e+01|  3.0555e-09|  7.6103e-01|  5.0000e-01|  5.0000e-01|  5.0000e-01|   -7.825115|   -7.937872|   -8.489573|   -8.067016|   -8.069757|  -10.257636|    1.757956|
|        5768|  1.1083e+01|  3.0555e-09|  7.6103e-01|  5.0000e-01|  5.0000e-01|  5.0000e-01|   -7.825682|   -7.938574|   -8.489810|   -8.067491|   -8.070305|  -10.258043|    1.757956|
|        5769|  1.1082e+01|  3.0555e-09|  7.6103e-01|  5.0000e-01|  5.0000e-01|  5.0000e-01|   -7.826246|   -7.939273|   -8.490046|   -8.067963|   -8.070852|  -10.258449|    1.757956|
|        5770|  1.1081e+01|  3.0554e-09|  7.6103e-01|  5.0000e-01|  5.0000e-01|  5.0000e-01|   -7.826804|   -7.939971|   -8.490282|   -8.068431|   -8.071397|  -10.258855|    1.757956|
|        5771|  1.1081e+01|  3.0554e-09|  7.6103e-01|  5.0000e-01|  5.0000e-01|  5.0000e-01|   -7.827359|   -7.940665|   -8.490516|   -8.068895|   -8.071940|  -10.259259|    1.757955|
|        5772|  1.1080e+01|  3.0554e-09|  7.6103e-01|  5.0000e-01|  5.0000e-01|  5.0000e-01|   -7.827908|   -7.941358|   -8.490750|   -8.069355|   -8.072481|  -10.259662|    1.757955|
|        5773|  1.1080e+01|  3.0554e-09|  7.6103e-01|  5.0000e-01|  5.0000e-01|  5.0000e-01|   -7.828454|   -7.942048|   -8.490983|   -8.069811|   -8.073020|  -10.260063|    1.757955|
|        5774|  1.1079e+01|  3.0553e-09|  7.6103e-01|  5.0000e-01|  5.0000e-01|  5.0000e-01|   -7.828994|   -7.942735|   -8.491216|   -8.070264|   -8.073557|  -10.260464|    1.757955|
|        5775|  1.1079e+01|  3.0553e-09|  7.6103e-01|  5.0000e-01|  5.0000e-01|  5.0000e-01|   -7.829530|   -7.943419|   -8.491447|   -8.070712|   -8.074093|  -10.260863|    1.757955|
|        5776|  1.1078e+01|  3.0553e-09|  7.6103e-01|  5.0000e-01|  5.0000e-01|  5.0000e-01|   -7.830062|   -7.944101|   -8.491678|   -8.071157|   -8.074626|  -10.261261|    1.757955|
|        5777|  1.1077e+01|  3.0553e-09|  7.6103e-01|  5.0000e-01|  5.0000e-01|  5.0000e-01|   -7.830588|   -7.944780|   -8.491908|   -8.071598|   -8.075158|  -10.261657|    1.757954|
|        5778|  1.1077e+01|  3.0552e-09|  7.6103e-01|  5.0000e-01|  5.0000e-01|  5.0000e-01|   -7.831110|   -7.945457|   -8.492137|   -8.072034|   -8.075687|  -10.262052|    1.757954|
|        5779|  1.1076e+01|  3.0552e-09|  7.6103e-01|  5.0000e-01|  5.0000e-01|  5.0000e-01|   -7.831627|   -7.946130|   -8.492365|   -8.072467|   -8.076214|  -10.262446|    1.757954|
|        5780|  1.1076e+01|  3.0552e-09|  7.6103e-01|  5.0000e-01|  5.0000e-01|  5.0000e-01|   -7.832139|   -7.946801|   -8.492593|   -8.072895|   -8.076739|  -10.262838|    1.757954|
|        5781|  1.1075e+01|  3.0551e-09|  7.6103e-01|  5.0000e-01|  5.0000e-01|  5.0000e-01|   -7.832647|   -7.947468|   -8.492819|   -8.073319|   -8.077262|  -10.263229|    1.757954|
|        5782|  1.1075e+01|  3.0551e-09|  7.6103e-01|  5.0000e-01|  5.0000e-01|  5.0000e-01|   -7.833149|   -7.948133|   -8.493045|   -8.073739|   -8.077783|  -10.263618|    1.757954|
|        5783|  1.1074e+01|  3.0551e-09|  7.6103e-01|  5.0000e-01|  5.0000e-01|  5.0000e-01|   -7.833646|   -7.948794|   -8.493270|   -8.074155|   -8.078302|  -10.264006|    1.757953|
|        5784|  1.1073e+01|  3.0551e-09|  7.6103e-01|  5.0000e-01|  5.0000e-01|  5.0000e-01|   -7.834139|   -7.949452|   -8.493495|   -8.074567|   -8.078818|  -10.264392|    1.757953|
|        5785|  1.1073e+01|  3.0550e-09|  7.6103e-01|  5.0000e-01|  5.0000e-01|  5.0000e-01|   -7.834626|   -7.950107|   -8.493718|   -8.074975|   -8.079332|  -10.264777|    1.757953|

scontrol show job 1163490
JobId=1163490 JobName=m6_aoa32
   UserId=anthonyy(3152141) GroupId=anthonyy(3152141) MCS_label=N/A
   Priority=524900 Nice=0 Account=rrg-jphickey QOS=normal
   JobState=COMPLETING Reason=TimeLimit Dependency=(null)
   Requeue=0 Restarts=0 BatchFlag=1 Reboot=0 ExitCode=0:15
   RunTime=18:00:02 TimeLimit=18:00:00 TimeMin=N/A
   SubmitTime=2026-03-10T23:17:59 EligibleTime=2026-03-10T23:17:59
   AccrueTime=2026-03-10T23:17:59
   StartTime=2026-03-14T19:27:47 EndTime=2026-03-15T13:27:49 Deadline=N/A
   SuspendTime=None SecsPreSuspend=0 LastSchedEval=2026-03-14T19:27:47 Scheduler=Backfill
   Partition=compute AllocNode:Sid=tri-login03:3231923
   ReqNodeList=(null) ExcNodeList=(null)
   NodeList=tri[1086,1119]
   BatchHost=tri1086
   NumNodes=2 NumCPUs=384 NumTasks=128 CPUs/Task=1 ReqB:S:C:T=0:0:*:*
   ReqTRES=cpu=128,mem=1534000M,node=2,billing=128
   AllocTRES=cpu=384,mem=1534000M,node=2,billing=384
   Socks/Node=* NtasksPerN:B:S:C=64:0:*:* CoreSpec=*
   MinCPUsNode=64 MinMemoryNode=0 MinTmpDiskNode=0
   Features=(null) DelayBoot=00:00:00
   OverSubscribe=NO Contiguous=0 Licenses=(null) Network=(null)
   Command=/scratch/anthonyy/reentry/orion/cases/m6_aoa32/run.sh
   WorkDir=/scratch/anthonyy/reentry/orion/cases/m6_aoa32
   Comment=/opt/slurm/bin/sbatch --export=NONE --get-user-env=L run.sh 
   StdErr=/scratch/anthonyy/reentry/orion/cases/m6_aoa32/orion_1163490.err
   StdIn=/dev/null
   StdOut=/scratch/anthonyy/reentry/orion/cases/m6_aoa32/orion_1163490.out
   TresPerTask=cpu=1
   

sacct -j 1163490
JobID           JobName    Account    Elapsed  MaxVMSize     MaxRSS  SystemCPU    UserCPU ExitCode 
------------ ---------- ---------- ---------- ---------- ---------- ---------- ---------- -------- 
1163490        m6_aoa32 rrg-jphic+   18:00:02                        00:00.120  00:00.592      0:0 
1163490.bat+      batch rrg-jphic+   18:00:04          0     10152K  00:00.120  00:00.592     0:15 
1163490.ext+     extern rrg-jphic+   18:00:02                         00:00:00   00:00:00      0:0 
1163490.0       SU2_CFD rrg-jphic+   17:59:55                         00:00:00   00:00:00      0:0 

