Nodes: tri[1009,1039]
Tasks: 128
NPN:   64

-------------------------------------------------------------------------
|    ___ _   _ ___                                                      |
|   / __| | | |_  )   Release 7.5.1 "Blackbird"                         |
|   \__ \ |_| |/ /                                                      |
|   |___/\___//___|   Suite (Computational Fluid Dynamics Code)         |
|                                                                       |
-------------------------------------------------------------------------
| SU2 Project Website: https://su2code.github.io                        |
|                                                                       |
| The SU2 Project is maintained by the SU2 Foundation                   |
| (http://su2foundation.org)                                            |
-------------------------------------------------------------------------
| Copyright 2012-2023, SU2 Contributors                                 |
|                                                                       |
| SU2 is free software; you can redistribute it and/or                  |
| modify it under the terms of the GNU Lesser General Public            |
| License as published by the Free Software Foundation; either          |
| version 2.1 of the License, or (at your option) any later version.    |
|                                                                       |
| SU2 is distributed in the hope that it will be useful,                |
| but WITHOUT ANY WARRANTY; without even the implied warranty of        |
| MERCHANTABILITY or FITNESS FOR A PARTICULAR PURPOSE. See the GNU      |
| Lesser General Public License for more details.                       |
|                                                                       |
| You should have received a copy of the GNU Lesser General Public      |
| License along with SU2. If not, see <http://www.gnu.org/licenses/>.   |
-------------------------------------------------------------------------

Parsing config file for zone 0

----------------- Physical Case Definition ( Zone 0 ) -------------------
Compressible RANS equations.
Turbulence model: Spalart-Allmaras-noft2
Hybrid RANS/LES: No Hybrid RANS/LES
Mach number: 6.
Angle of attack (AoA): 32 deg, and angle of sideslip (AoS): 0 deg.
Reynolds number: 6.86229e+08. Reference length 5.
Reading and writing binary SU2 native restart files.
Read flow solution from: restart_flow.dat.
Non-Dimensional simulation (V=1.0, Rho=1.0, T=1.0 at the farfield).
The reference area will be computed using y(2D) or z(3D) projection.
The semi-span will be computed using the max y(3D) value.
The reference length is 0.64607 m.
Reference origin for moment evaluation is (0.25, 0, 0).
Surface(s) where the force coefficients are evaluated: ORION_SURFACE.

Input mesh file name: fine.su2

--------------- Space Numerical Integration ( Zone 0 ) ------------------
Jameson-Schmidt-Turkel scheme (2nd order in space) for the flow inviscid terms.
JST viscous coefficients (2nd & 4th): 0.5, 0.02.
The method includes a grid stretching correction (p = 0.3).
Scalar upwind solver for the turbulence model.
First order integration in space.
Average of gradients with correction (viscous flow terms).
Average of gradients with correction (viscous turbulence terms).
Gradient for upwind reconstruction: Green-Gauss.
Gradient for viscous and source terms: Green-Gauss.

--------------- Time Numerical Integration  ( Zone 0 ) ------------------
Local time stepping (steady state simulation).
Euler implicit method for the flow equations.
FGMRES is used for solving the linear system.
Using a ILU(0) preconditioning.
Convergence criteria of the linear solver: 1e-06.
Max number of linear iterations: 100.
CFL adaptation. Factor down: 0.5, factor up: 1.1,
                lower limit: 0.05, upper limit: 0.5,
                acceptable linear residual: 0.001.
Courant-Friedrichs-Lewy number:     0.03
Euler implicit time integration for the turbulence model.

------------------ Convergence Criteria  ( Zone 0 ) ---------------------
Maximum number of solver subiterations: 999999.
Begin convergence monitoring at iteration 5.
Residual minimum value: 1e-8.
Cauchy series min. value: 1e-10.
Number of Cauchy elements: 100.
Begin windowed time average at iteration 0.

-------------------- Output Information ( Zone 0 ) ----------------------
File writing frequency: 
+------------------------------------+
|                     File| Frequency|
+------------------------------------+
|                  RESTART|       150|
|                 PARAVIEW|       150|
|         SURFACE_PARAVIEW|       150|
+------------------------------------+
Writing the convergence history file every 1 inner iterations.
Writing the screen convergence history every 1 inner iterations.
The tabular file format is CSV (.csv).
Convergence history file name: history.
Forces breakdown file name: forces_breakdown.dat.
Surface file name: surface_flow.
Volume file name: flow.
Restart file name: restart_flow.

------------- Config File Boundary Information ( Zone 0 ) ---------------
+-----------------------------------------------------------------------+
|                        Marker Type|                        Marker Name|
+-----------------------------------------------------------------------+
|                          Far-field|                           FARFIELD|
+-----------------------------------------------------------------------+
|                     Heat flux wall|                      ORION_SURFACE|
+-----------------------------------------------------------------------+

-------------------- Output Preprocessing ( Zone 0 ) --------------------

WARNING: SURFACE_PRESSURE_DROP can only be computed for at least 2 surfaces (outlet, inlet, ...)

Screen output fields: INNER_ITER, WALL_TIME, MIN_DELTA_TIME, MAX_DELTA_TIME, MIN_CFL, MAX_CFL, AVG_CFL, RMS_DENSITY, RMS_MOMENTUM-X, RMS_MOMENTUM-Y, RMS_MOMENTUM-Z, RMS_ENERGY, RMS_NU_TILDE, DRAG
History output group(s): ITER, RMS_RES
Convergence field(s): RMS_DENSITY
Warning: No (valid) fields chosen for time convergence monitoring. Time convergence monitoring inactive.
Volume output fields: MACH, PRESSURE, TEMPERATURE, DENSITY, HEAT_FLUX, Y_PLUS, COORDINATES, SOLUTION

------------------- Geometry Preprocessing ( Zone 0 ) -------------------
Three dimensional problem.
62211324 grid points before partitioning.
190879888 volume elements before partitioning.
2 surface markers.
4104 boundary elements in index 0 (Marker = FARFIELD).
1824836 boundary elements in index 1 (Marker = ORION_SURFACE).
Executing the partitioning functions.
Building the graph adjacency structure.
Calling ParMETIS... graph partitioning complete (4959327 edge cuts).
Distributing ParMETIS coloring.
Rebalancing vertices.
Rebalancing volume element connectivity.
Rebalancing markers and surface elements.
66952290 vertices including ghost points. 
197997438 interior elements including halo cells. 
103171259 tetrahedra.
94500655 prisms.
325524 pyramids.
Establishing MPI communication patterns.
Setting point connectivity.
Renumbering points (Reverse Cuthill McKee Ordering).
Recomputing point connectivity.
Setting element connectivity.
Checking the numerical grid orientation.
All volume elements are correctly orientend.
All surface elements are correctly orientend.
Identifying edges and vertices.
Setting the control volume structure.
Volume of the computational grid: 535693.
Searching for the closest normal neighbors to the surfaces.
Storing a mapping from global to local point index.
Compute the surface curvature.
Max K: 132.896. Mean K: 3.9104. Standard deviation K: 7.49569.
Checking for periodicity.
Computing mesh quality statistics for the dual control volumes.
+--------------------------------------------------------------+
|           Mesh Quality Metric|        Minimum|        Maximum|
+--------------------------------------------------------------+
|    Orthogonality Angle (deg.)|        53.0661|             90|
|     CV Face Area Aspect Ratio|        1.01143|        75298.5|
|           CV Sub-Volume Ratio|        1.00029|        45.0258|
+--------------------------------------------------------------+
Finding max control volume width.
Communicating number of neighbors.
Reference area = 11.531 m^2.
Semi-span length = 2.49999 m.
Wetted area = 57.9072 m^2.
Area projection in the x-plane = 19.6343 m^2, y-plane = 11.531 m^2, z-plane = 11.531 m^2.
Max. coordinate in the x-direction = 2.575 m, y-direction = 2.49999 m, z-direction = 2.49999 m.
Min. coordinate in the x-direction = -0.71 m, y-direction = -2.49999 m, z-direction = -2.5 m.
Computing wall distances.

-------------------- Solver Preprocessing ( Zone 0 ) --------------------
Viscous flow: Computing pressure using the ideal gas law
based on the free-stream temperature and a density computed
from the Reynolds number.
Force coefficients computed using free-stream values.

-- Models:
+------------------------------------------------------------------------------+
|          Viscosity Model|        Conductivity Model|              Fluid Model|
+------------------------------------------------------------------------------+
|               SUTHERLAND|          CONSTANT_PRANDTL|             STANDARD_AIR|
+------------------------------------------------------------------------------+
-- Fluid properties:
+------------------------------------------------------------------------------+
|                  Name|    Dim. value|    Ref. value|      Unit|Non-dim. value|
+------------------------------------------------------------------------------+
|        Ref. Viscosity|     1.716e-05|       2455.73|   N.s/m^2|   6.98773e-09|
|      Sutherland Temp.|        273.15|        288.15|         K|      0.947944|
|     Sutherland Const.|         110.4|        288.15|         K|      0.383134|
+------------------------------------------------------------------------------+
|        Prandtl (Lam.)|             -|             -|         -|          0.72|
|       Prandtl (Turb.)|             -|             -|         -|           0.9|
+------------------------------------------------------------------------------+
|          Gas Constant|       287.058|       14467.7|  N.m/kg.K|     0.0198413|
|      Spec. Heat Ratio|             -|             -|         -|           1.4|
+------------------------------------------------------------------------------+
-- Initial and free-stream conditions:
+------------------------------------------------------------------------------+
|                  Name|    Dim. value|    Ref. value|      Unit|Non-dim. value|
+------------------------------------------------------------------------------+
|       Static Pressure|       99485.6|   5.01407e+06|        Pa|     0.0198413|
|               Density|       1.20274|       1.20274|    kg/m^3|             1|
|           Temperature|        288.15|        288.15|         K|             1|
|          Total Energy|   2.29123e+06|   4.16887e+06|   m^2/s^2|      0.549603|
|            Velocity-X|       1731.53|       2041.78|       m/s|      0.848048|
|            Velocity-Y|             0|       2041.78|       m/s|             0|
|            Velocity-Z|       1081.98|       2041.78|       m/s|      0.529919|
|    Velocity Magnitude|       2041.78|       2041.78|       m/s|             1|
+------------------------------------------------------------------------------+
|             Viscosity|    1.7893e-05|       2455.73|   N.s/m^2|    7.2862e-09|
|          Conductivity|             -|   3.55289e+07|   W/m^2.K|             -|
|     Turb. Kin. Energy|       15633.3|   4.16887e+06|   m^2/s^2|       0.00375|
|     Spec. Dissipation|   1.05085e+08|       2041.78|       1/s|       51467.1|
+------------------------------------------------------------------------------+
|           Mach Number|             -|             -|         -|             6|
|       Reynolds Number|             -|             -|         -|   6.86229e+08|
+------------------------------------------------------------------------------+
Initialize Jacobian structure (Navier-Stokes). MG level: 0.
Initialize Jacobian structure (SA model).

------------------- Numerics Preprocessing ( Zone 0 ) -------------------

----------------- Integration Preprocessing ( Zone 0 ) ------------------

------------------- Iteration Preprocessing ( Zone 0 ) ------------------
Euler/Navier-Stokes/RANS fluid iteration.

------------------------------ Begin Solver -----------------------------

Simulation Run using the Single-zone Driver
WARNING: SU2 was not compiled for an AVX-capable architecture. Performance could be better,
         see https://su2code.github.io/docs_v7/Build-SU2-Linux-MacOS/#compiler-optimizations
+-------------------------------------------------------------------------------------------------------------------------------------------------------------------------------------+
|  Inner_Iter|   Time(sec)|      Min DT|      Max DT|     Min CFL|     Max CFL|     Avg CFL|    rms[Rho]|   rms[RhoU]|   rms[RhoV]|   rms[RhoW]|   rms[RhoE]|     rms[nu]|          CD|
+-------------------------------------------------------------------------------------------------------------------------------------------------------------------------------------+
|           0|  8.5063e+00|  2.9163e-10|  4.5662e-02|  5.0000e-02|  5.0000e-02|  5.0000e-02|   -5.867707|   -5.993541|   -6.486904|   -6.178037|   -6.153835|   -8.694343|    1.761438|
|           1|  7.1532e+00|  4.8605e-10|  7.6103e-02|  5.5000e-02|  5.5000e-02|  5.5000e-02|   -5.867725|   -5.993548|   -6.486961|   -6.178053|   -6.153876|   -8.694253|    1.761436|
|           2|  6.7355e+00|  5.3466e-10|  8.3713e-02|  6.0500e-02|  6.0500e-02|  6.0500e-02|   -5.867752|   -5.993558|   -6.487050|   -6.178077|   -6.153938|   -8.694254|    1.761433|
|           3|  6.4819e+00|  5.8812e-10|  9.2084e-02|  6.6550e-02|  6.6550e-02|  6.6550e-02|   -5.867781|   -5.993568|   -6.487146|   -6.178104|   -6.154005|   -8.694255|    1.761430|
|           4|  6.3301e+00|  6.4693e-10|  1.0129e-01|  7.3205e-02|  7.3205e-02|  7.3205e-02|   -5.867812|   -5.993580|   -6.487249|   -6.178132|   -6.154076|   -8.694257|    1.761427|
|           5|  6.2043e+00|  7.1163e-10|  1.1142e-01|  8.0526e-02|  8.0526e-02|  8.0526e-02|   -5.867844|   -5.993592|   -6.487358|   -6.178162|   -6.154154|   -8.694258|    1.761423|
|           6|  6.1168e+00|  7.8279e-10|  1.2256e-01|  8.8578e-02|  8.8578e-02|  8.8578e-02|   -5.867879|   -5.993604|   -6.487475|   -6.178194|   -6.154236|   -8.694260|    1.761419|
|           7|  6.0534e+00|  8.6106e-10|  1.3482e-01|  9.7436e-02|  9.7436e-02|  9.7436e-02|   -5.867916|   -5.993617|   -6.487599|   -6.178228|   -6.154324|   -8.694263|    1.761415|
|           8|  6.0055e+00|  9.4716e-10|  1.4830e-01|  1.0718e-01|  1.0718e-01|  1.0718e-01|   -5.867954|   -5.993630|   -6.487730|   -6.178264|   -6.154417|   -8.694266|    1.761410|
|           9|  5.9723e+00|  1.0419e-09|  1.6313e-01|  1.1790e-01|  1.1790e-01|  1.1790e-01|   -5.867994|   -5.993644|   -6.487867|   -6.178301|   -6.154516|   -8.694269|    1.761404|
|          10|  5.9594e+00|  1.1461e-09|  1.7945e-01|  1.2969e-01|  1.2969e-01|  1.2969e-01|   -5.868036|   -5.993657|   -6.488011|   -6.178341|   -6.154620|   -8.694273|    1.761398|
|          11|  5.9487e+00|  1.2607e-09|  1.9739e-01|  1.4266e-01|  1.4266e-01|  1.4266e-01|   -5.868079|   -5.993671|   -6.488160|   -6.178381|   -6.154728|   -8.694279|    1.761392|
|          12|  5.9783e+00|  1.3867e-09|  2.1713e-01|  1.5692e-01|  1.5692e-01|  1.5692e-01|   -5.868122|   -5.993683|   -6.488314|   -6.178422|   -6.154841|   -8.694285|    1.761384|
|          13|  5.9961e+00|  1.5254e-09|  2.3884e-01|  1.7261e-01|  1.7261e-01|  1.7261e-01|   -5.868165|   -5.993695|   -6.488471|   -6.178464|   -6.154958|   -8.694293|    1.761376|
|          14|  6.0250e+00|  1.6779e-09|  2.6273e-01|  1.8987e-01|  1.8987e-01|  1.8987e-01|   -5.868208|   -5.993704|   -6.488631|   -6.178505|   -6.155076|   -8.694302|    1.761368|
|          15|  6.0490e+00|  1.8457e-09|  2.8900e-01|  2.0886e-01|  2.0886e-01|  2.0886e-01|   -5.868248|   -5.993711|   -6.488790|   -6.178545|   -6.155196|   -8.694313|    1.761358|
|          16|  6.0611e+00|  2.0302e-09|  3.1790e-01|  2.2975e-01|  2.2975e-01|  2.2975e-01|   -5.868285|   -5.993713|   -6.488946|   -6.178582|   -6.155315|   -8.694327|    1.761347|
|          17|  6.0774e+00|  2.2333e-09|  3.4969e-01|  2.5272e-01|  2.5272e-01|  2.5272e-01|   -5.868318|   -5.993710|   -6.489096|   -6.178615|   -6.155429|   -8.694344|    1.761336|
|          18|  6.0962e+00|  2.4566e-09|  3.8466e-01|  2.7800e-01|  2.7800e-01|  2.7800e-01|   -5.868343|   -5.993700|   -6.489237|   -6.178642|   -6.155537|   -8.694365|    1.761323|
|          19|  6.1043e+00|  2.7022e-09|  4.2313e-01|  3.0580e-01|  3.0580e-01|  3.0580e-01|   -5.868358|   -5.993680|   -6.489365|   -6.178659|   -6.155635|   -8.694391|    1.761309|
|          20|  6.1089e+00|  2.9724e-09|  4.6544e-01|  3.3637e-01|  3.3637e-01|  3.3637e-01|   -5.868360|   -5.993646|   -6.489473|   -6.178664|   -6.155715|   -8.694423|    1.761293|
|          21|  6.1131e+00|  3.2696e-09|  5.1198e-01|  3.7001e-01|  3.7001e-01|  3.7001e-01|   -5.868345|   -5.993595|   -6.489555|   -6.178653|   -6.155773|   -8.694463|    1.761276|
|          22|  6.1468e+00|  3.5965e-09|  5.6318e-01|  4.0701e-01|  4.0701e-01|  4.0701e-01|   -5.868306|   -5.993522|   -6.489605|   -6.178619|   -6.155800|   -8.694511|    1.761257|
|          23|  6.1797e+00|  3.9561e-09|  6.1950e-01|  4.4772e-01|  4.4772e-01|  4.4772e-01|   -5.868237|   -5.993419|   -6.489615|   -6.178556|   -6.155785|   -8.694572|    1.761236|
|          24|  6.2045e+00|  4.3516e-09|  6.8145e-01|  4.9249e-01|  4.9249e-01|  4.9249e-01|   -5.868130|   -5.993279|   -6.489574|   -6.178456|   -6.155715|   -8.694646|    1.761212|
|          25|  6.2290e+00|  4.7867e-09|  7.4959e-01|  5.0000e-01|  5.0000e-01|  5.0000e-01|   -5.867973|   -5.993091|   -6.489471|   -6.178307|   -6.155574|   -8.694738|    1.761187|
|          26|  6.2542e+00|  4.8596e-09|  7.6103e-01|  5.0000e-01|  5.0000e-01|  5.0000e-01|   -5.867754|   -5.992841|   -6.489294|   -6.178096|   -6.155342|   -8.695070|    1.761161|
|          27|  6.2783e+00|  4.8595e-09|  7.6103e-01|  5.0000e-01|  5.0000e-01|  5.0000e-01|   -5.867520|   -5.992573|   -6.489115|   -6.177868|   -6.155086|   -8.695458|    1.761135|
|          28|  6.3000e+00|  4.8594e-09|  7.6103e-01|  5.0000e-01|  5.0000e-01|  5.0000e-01|   -5.867281|   -5.992296|   -6.488949|   -6.177633|   -6.154821|   -8.695855|    1.761109|
|          29|  6.3223e+00|  4.8594e-09|  7.6103e-01|  5.0000e-01|  5.0000e-01|  5.0000e-01|   -5.867037|   -5.992010|   -6.488794|   -6.177392|   -6.154545|   -8.696261|    1.761083|
|          30|  6.3435e+00|  4.8593e-09|  7.6103e-01|  5.0000e-01|  5.0000e-01|  5.0000e-01|   -5.866788|   -5.991717|   -6.488651|   -6.177144|   -6.154262|   -8.696677|    1.761057|
|          31|  6.3588e+00|  4.8592e-09|  7.6103e-01|  5.0000e-01|  5.0000e-01|  5.0000e-01|   -5.866535|   -5.991416|   -6.488518|   -6.176890|   -6.153970|   -8.697103|    1.761030|
|          32|  6.3749e+00|  4.8591e-09|  7.6103e-01|  5.0000e-01|  5.0000e-01|  5.0000e-01|   -5.866278|   -5.991108|   -6.488395|   -6.176631|   -6.153671|   -8.697538|    1.761004|
|          33|  6.3905e+00|  4.8590e-09|  7.6103e-01|  5.0000e-01|  5.0000e-01|  5.0000e-01|   -5.866017|   -5.990795|   -6.488281|   -6.176367|   -6.153365|   -8.697982|    1.760978|
|          34|  6.4071e+00|  4.8589e-09|  7.6103e-01|  5.0000e-01|  5.0000e-01|  5.0000e-01|   -5.865753|   -5.990477|   -6.488177|   -6.176100|   -6.153054|   -8.698435|    1.760952|
|          35|  6.4203e+00|  4.8588e-09|  7.6103e-01|  5.0000e-01|  5.0000e-01|  5.0000e-01|   -5.865487|   -5.990154|   -6.488080|   -6.175829|   -6.152738|   -8.698898|    1.760925|
|          36|  6.4303e+00|  4.8587e-09|  7.6103e-01|  5.0000e-01|  5.0000e-01|  5.0000e-01|   -5.865219|   -5.989828|   -6.487991|   -6.175556|   -6.152417|   -8.699370|    1.760899|
|          37|  6.4413e+00|  4.8586e-09|  7.6103e-01|  5.0000e-01|  5.0000e-01|  5.0000e-01|   -5.864950|   -5.989499|   -6.487909|   -6.175281|   -6.152094|   -8.699851|    1.760873|
|          38|  6.4525e+00|  4.8585e-09|  7.6103e-01|  5.0000e-01|  5.0000e-01|  5.0000e-01|   -5.864680|   -5.989168|   -6.487835|   -6.175005|   -6.151768|   -8.700341|    1.760846|
|          39|  6.4624e+00|  4.8585e-09|  7.6103e-01|  5.0000e-01|  5.0000e-01|  5.0000e-01|   -5.864409|   -5.988836|   -6.487767|   -6.174728|   -6.151441|   -8.700840|    1.760820|
|          40|  6.4724e+00|  4.8584e-09|  7.6103e-01|  5.0000e-01|  5.0000e-01|  5.0000e-01|   -5.864139|   -5.988504|   -6.487705|   -6.174451|   -6.151113|   -8.701348|    1.760793|
|          41|  6.4807e+00|  4.8583e-09|  7.6103e-01|  5.0000e-01|  5.0000e-01|  5.0000e-01|   -5.863870|   -5.988171|   -6.487648|   -6.174176|   -6.150786|   -8.701865|    1.760767|
|          42|  6.4900e+00|  4.8582e-09|  7.6103e-01|  5.0000e-01|  5.0000e-01|  5.0000e-01|   -5.863602|   -5.987840|   -6.487595|   -6.173901|   -6.150458|   -8.702391|    1.760740|
|          43|  6.5033e+00|  4.8581e-09|  7.6103e-01|  5.0000e-01|  5.0000e-01|  5.0000e-01|   -5.863336|   -5.987510|   -6.487547|   -6.173628|   -6.150133|   -8.702925|    1.760714|
|          44|  6.5110e+00|  4.8580e-09|  7.6103e-01|  5.0000e-01|  5.0000e-01|  5.0000e-01|   -5.863071|   -5.987181|   -6.487503|   -6.173358|   -6.149809|   -8.703469|    1.760687|
|          45|  6.5173e+00|  4.8579e-09|  7.6103e-01|  5.0000e-01|  5.0000e-01|  5.0000e-01|   -5.862810|   -5.986856|   -6.487463|   -6.173091|   -6.149489|   -8.704021|    1.760660|
|          46|  6.5244e+00|  4.8578e-09|  7.6103e-01|  5.0000e-01|  5.0000e-01|  5.0000e-01|   -5.862552|   -5.986534|   -6.487427|   -6.172828|   -6.149172|   -8.704582|    1.760634|
|          47|  6.5299e+00|  4.8578e-09|  7.6103e-01|  5.0000e-01|  5.0000e-01|  5.0000e-01|   -5.862298|   -5.986215|   -6.487395|   -6.172569|   -6.148859|   -8.705152|    1.760607|
|          48|  6.5365e+00|  4.8577e-09|  7.6103e-01|  5.0000e-01|  5.0000e-01|  5.0000e-01|   -5.862048|   -5.985901|   -6.487365|   -6.172314|   -6.148551|   -8.705730|    1.760580|
|          49|  6.5465e+00|  4.8576e-09|  7.6103e-01|  5.0000e-01|  5.0000e-01|  5.0000e-01|   -5.861803|   -5.985592|   -6.487340|   -6.172065|   -6.148249|   -8.706318|    1.760554|
|          50|  6.5526e+00|  4.8575e-09|  7.6103e-01|  5.0000e-01|  5.0000e-01|  5.0000e-01|   -5.861562|   -5.985287|   -6.487317|   -6.171820|   -6.147952|   -8.706914|    1.760527|
|          51|  6.5603e+00|  4.8574e-09|  7.6103e-01|  5.0000e-01|  5.0000e-01|  5.0000e-01|   -5.861326|   -5.984987|   -6.487296|   -6.171581|   -6.147661|   -8.707518|    1.760500|
|          52|  6.5644e+00|  4.8573e-09|  7.6103e-01|  5.0000e-01|  5.0000e-01|  5.0000e-01|   -5.861096|   -5.984692|   -6.487277|   -6.171348|   -6.147375|   -8.708132|    1.760473|
|          53|  6.5689e+00|  4.8572e-09|  7.6103e-01|  5.0000e-01|  5.0000e-01|  5.0000e-01|   -5.860870|   -5.984404|   -6.487260|   -6.171120|   -6.147096|   -8.708754|    1.760446|
|          54|  6.5736e+00|  4.8572e-09|  7.6103e-01|  5.0000e-01|  5.0000e-01|  5.0000e-01|   -5.860650|   -5.984121|   -6.487244|   -6.170899|   -6.146824|   -8.709384|    1.760419|
|          55|  6.5781e+00|  4.8571e-09|  7.6103e-01|  5.0000e-01|  5.0000e-01|  5.0000e-01|   -5.860437|   -5.983844|   -6.487232|   -6.170683|   -6.146558|   -8.710024|    1.760392|
|          56|  6.5824e+00|  4.8570e-09|  7.6103e-01|  5.0000e-01|  5.0000e-01|  5.0000e-01|   -5.860229|   -5.983573|   -6.487221|   -6.170474|   -6.146300|   -8.710672|    1.760365|
|          57|  6.5852e+00|  4.8569e-09|  7.6103e-01|  5.0000e-01|  5.0000e-01|  5.0000e-01|   -5.860027|   -5.983309|   -6.487211|   -6.170272|   -6.146049|   -8.711329|    1.760339|
|          58|  6.5894e+00|  4.8568e-09|  7.6103e-01|  5.0000e-01|  5.0000e-01|  5.0000e-01|   -5.859832|   -5.983051|   -6.487203|   -6.170076|   -6.145804|   -8.711994|    1.760312|
|          59|  6.5935e+00|  4.8567e-09|  7.6103e-01|  5.0000e-01|  5.0000e-01|  5.0000e-01|   -5.859642|   -5.982799|   -6.487196|   -6.169885|   -6.145566|   -8.712668|    1.760284|
|          60|  6.5957e+00|  4.8566e-09|  7.6103e-01|  5.0000e-01|  5.0000e-01|  5.0000e-01|   -5.859458|   -5.982553|   -6.487190|   -6.169702|   -6.145336|   -8.713351|    1.760257|
|          61|  6.5987e+00|  4.8566e-09|  7.6103e-01|  5.0000e-01|  5.0000e-01|  5.0000e-01|   -5.859281|   -5.982313|   -6.487185|   -6.169524|   -6.145112|   -8.714043|    1.760230|
|          62|  6.6005e+00|  4.8565e-09|  7.6103e-01|  5.0000e-01|  5.0000e-01|  5.0000e-01|   -5.859109|   -5.982080|   -6.487180|   -6.169353|   -6.144894|   -8.714743|    1.760203|
|          63|  6.6032e+00|  4.8564e-09|  7.6103e-01|  5.0000e-01|  5.0000e-01|  5.0000e-01|   -5.858944|   -5.981853|   -6.487177|   -6.169188|   -6.144684|   -8.715452|    1.760176|
|          64|  6.6088e+00|  4.8563e-09|  7.6103e-01|  5.0000e-01|  5.0000e-01|  5.0000e-01|   -5.858784|   -5.981632|   -6.487175|   -6.169029|   -6.144480|   -8.716170|    1.760149|
|          65|  6.6140e+00|  4.8562e-09|  7.6103e-01|  5.0000e-01|  5.0000e-01|  5.0000e-01|   -5.858631|   -5.981416|   -6.487174|   -6.168876|   -6.144282|   -8.716897|    1.760122|
|          66|  6.6188e+00|  4.8561e-09|  7.6103e-01|  5.0000e-01|  5.0000e-01|  5.0000e-01|   -5.858485|   -5.981208|   -6.487174|   -6.168730|   -6.144092|   -8.717632|    1.760095|
|          67|  6.6227e+00|  4.8561e-09|  7.6103e-01|  5.0000e-01|  5.0000e-01|  5.0000e-01|   -5.858345|   -5.981006|   -6.487175|   -6.168591|   -6.143910|   -8.718376|    1.760068|
|          68|  6.6276e+00|  4.8560e-09|  7.6103e-01|  5.0000e-01|  5.0000e-01|  5.0000e-01|   -5.858212|   -5.980811|   -6.487178|   -6.168458|   -6.143734|   -8.719129|    1.760040|
|          69|  6.6296e+00|  4.8559e-09|  7.6103e-01|  5.0000e-01|  5.0000e-01|  5.0000e-01|   -5.858085|   -5.980621|   -6.487182|   -6.168331|   -6.143564|   -8.719890|    1.760013|
|          70|  6.6327e+00|  4.8558e-09|  7.6103e-01|  5.0000e-01|  5.0000e-01|  5.0000e-01|   -5.857962|   -5.980436|   -6.487185|   -6.168208|   -6.143399|   -8.720661|    1.759986|
|          71|  6.6359e+00|  4.8557e-09|  7.6103e-01|  5.0000e-01|  5.0000e-01|  5.0000e-01|   -5.857845|   -5.980256|   -6.487190|   -6.168091|   -6.143239|   -8.721440|    1.759959|
|          72|  6.6374e+00|  4.8556e-09|  7.6103e-01|  5.0000e-01|  5.0000e-01|  5.0000e-01|   -5.857734|   -5.980081|   -6.487194|   -6.167978|   -6.143084|   -8.722228|    1.759932|
|          73|  6.6387e+00|  4.8556e-09|  7.6103e-01|  5.0000e-01|  5.0000e-01|  5.0000e-01|   -5.857627|   -5.979911|   -6.487199|   -6.167870|   -6.142934|   -8.723025|    1.759904|
|          74|  6.6417e+00|  4.8555e-09|  7.6103e-01|  5.0000e-01|  5.0000e-01|  5.0000e-01|   -5.857525|   -5.979746|   -6.487205|   -6.167767|   -6.142789|   -8.723831|    1.759877|
|          75|  6.6447e+00|  4.8554e-09|  7.6103e-01|  5.0000e-01|  5.0000e-01|  5.0000e-01|   -5.857429|   -5.979585|   -6.487211|   -6.167669|   -6.142649|   -8.724646|    1.759850|
|          76|  6.6462e+00|  4.8553e-09|  7.6103e-01|  5.0000e-01|  5.0000e-01|  5.0000e-01|   -5.857338|   -5.979430|   -6.487218|   -6.167576|   -6.142514|   -8.725470|    1.759823|
|          77|  6.6478e+00|  4.8552e-09|  7.6103e-01|  5.0000e-01|  5.0000e-01|  5.0000e-01|   -5.857251|   -5.979279|   -6.487225|   -6.167487|   -6.142383|   -8.726302|    1.759795|
|          78|  6.6503e+00|  4.8552e-09|  7.6103e-01|  5.0000e-01|  5.0000e-01|  5.0000e-01|   -5.857170|   -5.979132|   -6.487232|   -6.167402|   -6.142256|   -8.727143|    1.759768|
|          79|  6.6532e+00|  4.8551e-09|  7.6103e-01|  5.0000e-01|  5.0000e-01|  5.0000e-01|   -5.857092|   -5.978990|   -6.487239|   -6.167322|   -6.142133|   -8.727994|    1.759741|
|          80|  6.6557e+00|  4.8550e-09|  7.6103e-01|  5.0000e-01|  5.0000e-01|  5.0000e-01|   -5.857019|   -5.978852|   -6.487247|   -6.167246|   -6.142014|   -8.728853|    1.759713|
|          81|  6.6579e+00|  4.8549e-09|  7.6103e-01|  5.0000e-01|  5.0000e-01|  5.0000e-01|   -5.856951|   -5.978718|   -6.487255|   -6.167174|   -6.141899|   -8.729721|    1.759686|
|          82|  6.6603e+00|  4.8548e-09|  7.6103e-01|  5.0000e-01|  5.0000e-01|  5.0000e-01|   -5.856887|   -5.978589|   -6.487263|   -6.167106|   -6.141788|   -8.730597|    1.759659|
|          83|  6.6615e+00|  4.8548e-09|  7.6103e-01|  5.0000e-01|  5.0000e-01|  5.0000e-01|   -5.856827|   -5.978463|   -6.487272|   -6.167043|   -6.141680|   -8.731483|    1.759631|
|          84|  6.6646e+00|  4.8547e-09|  7.6103e-01|  5.0000e-01|  5.0000e-01|  5.0000e-01|   -5.856772|   -5.978342|   -6.487282|   -6.166983|   -6.141576|   -8.732378|    1.759604|
|          85|  6.6669e+00|  4.8546e-09|  7.6103e-01|  5.0000e-01|  5.0000e-01|  5.0000e-01|   -5.856721|   -5.978225|   -6.487294|   -6.166927|   -6.141476|   -8.733281|    1.759577|
|          86|  6.6704e+00|  4.8545e-09|  7.6103e-01|  5.0000e-01|  5.0000e-01|  5.0000e-01|   -5.856673|   -5.978111|   -6.487304|   -6.166873|   -6.141378|   -8.734193|    1.759549|
|          87|  6.6745e+00|  4.8544e-09|  7.6103e-01|  5.0000e-01|  5.0000e-01|  5.0000e-01|   -5.856629|   -5.978000|   -6.487315|   -6.166824|   -6.141283|   -8.735114|    1.759522|
|          88|  6.6756e+00|  4.8544e-09|  7.6103e-01|  5.0000e-01|  5.0000e-01|  5.0000e-01|   -5.856588|   -5.977893|   -6.487326|   -6.166777|   -6.141191|   -8.736044|    1.759495|
|          89|  6.6775e+00|  4.8543e-09|  7.6103e-01|  5.0000e-01|  5.0000e-01|  5.0000e-01|   -5.856551|   -5.977790|   -6.487337|   -6.166734|   -6.141102|   -8.736983|    1.759467|
|          90|  6.6796e+00|  4.8542e-09|  7.6103e-01|  5.0000e-01|  5.0000e-01|  5.0000e-01|   -5.856517|   -5.977691|   -6.487347|   -6.166694|   -6.141015|   -8.737930|    1.759440|
|          91|  6.6814e+00|  4.8541e-09|  7.6103e-01|  5.0000e-01|  5.0000e-01|  5.0000e-01|   -5.856487|   -5.977595|   -6.487358|   -6.166658|   -6.140932|   -8.738887|    1.759413|
|          92|  6.6829e+00|  4.8541e-09|  7.6103e-01|  5.0000e-01|  5.0000e-01|  5.0000e-01|   -5.856461|   -5.977503|   -6.487369|   -6.166625|   -6.140851|   -8.739852|    1.759385|
|          93|  6.6843e+00|  4.8540e-09|  7.6103e-01|  5.0000e-01|  5.0000e-01|  5.0000e-01|   -5.856437|   -5.977414|   -6.487379|   -6.166595|   -6.140773|   -8.740825|    1.759358|
|          94|  6.6863e+00|  4.8539e-09|  7.6103e-01|  5.0000e-01|  5.0000e-01|  5.0000e-01|   -5.856417|   -5.977329|   -6.487389|   -6.166569|   -6.140697|   -8.741808|    1.759331|
|          95|  6.6877e+00|  4.8538e-09|  7.6103e-01|  5.0000e-01|  5.0000e-01|  5.0000e-01|   -5.856400|   -5.977247|   -6.487399|   -6.166545|   -6.140623|   -8.742799|    1.759303|
|          96|  6.6889e+00|  4.8538e-09|  7.6103e-01|  5.0000e-01|  5.0000e-01|  5.0000e-01|   -5.856386|   -5.977168|   -6.487410|   -6.166524|   -6.140552|   -8.743798|    1.759276|
|          97|  6.6893e+00|  4.8537e-09|  7.6103e-01|  5.0000e-01|  5.0000e-01|  5.0000e-01|   -5.856375|   -5.977092|   -6.487421|   -6.166506|   -6.140483|   -8.744807|    1.759249|
|          98|  6.6911e+00|  4.8536e-09|  7.6103e-01|  5.0000e-01|  5.0000e-01|  5.0000e-01|   -5.856368|   -5.977020|   -6.487433|   -6.166492|   -6.140417|   -8.745823|    1.759221|
|          99|  6.6928e+00|  4.8535e-09|  7.6103e-01|  5.0000e-01|  5.0000e-01|  5.0000e-01|   -5.856363|   -5.976952|   -6.487444|   -6.166480|   -6.140354|   -8.746849|    1.759194|
|         100|  6.6943e+00|  4.8535e-09|  7.6103e-01|  5.0000e-01|  5.0000e-01|  5.0000e-01|   -5.856362|   -5.976886|   -6.487456|   -6.166472|   -6.140293|   -8.747883|    1.759167|
|         101|  6.6978e+00|  4.8534e-09|  7.6103e-01|  5.0000e-01|  5.0000e-01|  5.0000e-01|   -5.856364|   -5.976824|   -6.487468|   -6.166465|   -6.140234|   -8.748925|    1.759140|
|         102|  6.7009e+00|  4.8533e-09|  7.6103e-01|  5.0000e-01|  5.0000e-01|  5.0000e-01|   -5.856368|   -5.976764|   -6.487479|   -6.166462|   -6.140176|   -8.749976|    1.759112|
|         103|  6.7051e+00|  4.8532e-09|  7.6103e-01|  5.0000e-01|  5.0000e-01|  5.0000e-01|   -5.856374|   -5.976708|   -6.487490|   -6.166461|   -6.140121|   -8.751035|    1.759085|
|         104|  6.7073e+00|  4.8532e-09|  7.6103e-01|  5.0000e-01|  5.0000e-01|  5.0000e-01|   -5.856384|   -5.976654|   -6.487500|   -6.166462|   -6.140067|   -8.752102|    1.759058|
|         105|  6.7085e+00|  4.8531e-09|  7.6103e-01|  5.0000e-01|  5.0000e-01|  5.0000e-01|   -5.856396|   -5.976604|   -6.487511|   -6.166467|   -6.140016|   -8.753178|    1.759031|
|         106|  6.7098e+00|  4.8530e-09|  7.6103e-01|  5.0000e-01|  5.0000e-01|  5.0000e-01|   -5.856411|   -5.976556|   -6.487522|   -6.166473|   -6.139966|   -8.754262|    1.759003|
|         107|  6.7111e+00|  4.8529e-09|  7.6103e-01|  5.0000e-01|  5.0000e-01|  5.0000e-01|   -5.856428|   -5.976512|   -6.487532|   -6.166482|   -6.139919|   -8.755354|    1.758976|
|         108|  6.7120e+00|  4.8529e-09|  7.6103e-01|  5.0000e-01|  5.0000e-01|  5.0000e-01|   -5.856447|   -5.976470|   -6.487541|   -6.166494|   -6.139873|   -8.756454|    1.758949|
|         109|  6.7129e+00|  4.8528e-09|  7.6103e-01|  5.0000e-01|  5.0000e-01|  5.0000e-01|   -5.856470|   -5.976431|   -6.487550|   -6.166509|   -6.139829|   -8.757562|    1.758922|
|         110|  6.7143e+00|  4.8527e-09|  7.6103e-01|  5.0000e-01|  5.0000e-01|  5.0000e-01|   -5.856495|   -5.976396|   -6.487558|   -6.166526|   -6.139787|   -8.758678|    1.758895|
|         111|  6.7148e+00|  4.8526e-09|  7.6103e-01|  5.0000e-01|  5.0000e-01|  5.0000e-01|   -5.856523|   -5.976362|   -6.487566|   -6.166545|   -6.139747|   -8.759803|    1.758867|
|         112|  6.7158e+00|  4.8526e-09|  7.6103e-01|  5.0000e-01|  5.0000e-01|  5.0000e-01|   -5.856552|   -5.976332|   -6.487574|   -6.166567|   -6.139709|   -8.760935|    1.758840|
|         113|  6.7171e+00|  4.8525e-09|  7.6103e-01|  5.0000e-01|  5.0000e-01|  5.0000e-01|   -5.856585|   -5.976305|   -6.487581|   -6.166592|   -6.139672|   -8.762075|    1.758813|
|         114|  6.7188e+00|  4.8524e-09|  7.6103e-01|  5.0000e-01|  5.0000e-01|  5.0000e-01|   -5.856620|   -5.976280|   -6.487588|   -6.166619|   -6.139638|   -8.763223|    1.758786|
|         115|  6.7200e+00|  4.8523e-09|  7.6103e-01|  5.0000e-01|  5.0000e-01|  5.0000e-01|   -5.856657|   -5.976258|   -6.487594|   -6.166648|   -6.139605|   -8.764378|    1.758759|
|         116|  6.7205e+00|  4.8523e-09|  7.6103e-01|  5.0000e-01|  5.0000e-01|  5.0000e-01|   -5.856697|   -5.976239|   -6.487600|   -6.166680|   -6.139574|   -8.765541|    1.758732|
|         117|  6.7212e+00|  4.8522e-09|  7.6103e-01|  5.0000e-01|  5.0000e-01|  5.0000e-01|   -5.856739|   -5.976222|   -6.487606|   -6.166714|   -6.139544|   -8.766712|    1.758705|
|         118|  6.7229e+00|  4.8521e-09|  7.6103e-01|  5.0000e-01|  5.0000e-01|  5.0000e-01|   -5.856783|   -5.976209|   -6.487611|   -6.166750|   -6.139517|   -8.767890|    1.758678|
|         119|  6.7241e+00|  4.8521e-09|  7.6103e-01|  5.0000e-01|  5.0000e-01|  5.0000e-01|   -5.856830|   -5.976198|   -6.487616|   -6.166789|   -6.139492|   -8.769076|    1.758651|
|         120|  6.7245e+00|  4.8520e-09|  7.6103e-01|  5.0000e-01|  5.0000e-01|  5.0000e-01|   -5.856880|   -5.976190|   -6.487621|   -6.166831|   -6.139468|   -8.770268|    1.758624|
|         121|  6.7254e+00|  4.8519e-09|  7.6103e-01|  5.0000e-01|  5.0000e-01|  5.0000e-01|   -5.856933|   -5.976184|   -6.487626|   -6.166875|   -6.139447|   -8.771468|    1.758597|
|         122|  6.7269e+00|  4.8518e-09|  7.6103e-01|  5.0000e-01|  5.0000e-01|  5.0000e-01|   -5.856988|   -5.976182|   -6.487630|   -6.166922|   -6.139427|   -8.772676|    1.758570|
|         123|  6.7274e+00|  4.8518e-09|  7.6103e-01|  5.0000e-01|  5.0000e-01|  5.0000e-01|   -5.857045|   -5.976182|   -6.487634|   -6.166971|   -6.139410|   -8.773890|    1.758543|
|         124|  6.7297e+00|  4.8517e-09|  7.6103e-01|  5.0000e-01|  5.0000e-01|  5.0000e-01|   -5.857105|   -5.976184|   -6.487638|   -6.167023|   -6.139394|   -8.775111|    1.758516|
|         125|  6.7309e+00|  4.8516e-09|  7.6103e-01|  5.0000e-01|  5.0000e-01|  5.0000e-01|   -5.857167|   -5.976190|   -6.487641|   -6.167077|   -6.139380|   -8.776339|    1.758489|
|         126|  6.7323e+00|  4.8516e-09|  7.6103e-01|  5.0000e-01|  5.0000e-01|  5.0000e-01|   -5.857232|   -5.976199|   -6.487646|   -6.167134|   -6.139370|   -8.777573|    1.758462|
|         127|  6.7330e+00|  4.8515e-09|  7.6103e-01|  5.0000e-01|  5.0000e-01|  5.0000e-01|   -5.857301|   -5.976210|   -6.487649|   -6.167193|   -6.139361|   -8.778815|    1.758435|
|         128|  6.7339e+00|  4.8514e-09|  7.6103e-01|  5.0000e-01|  5.0000e-01|  5.0000e-01|   -5.857371|   -5.976225|   -6.487652|   -6.167256|   -6.139354|   -8.780062|    1.758408|
|         129|  6.7344e+00|  4.8514e-09|  7.6103e-01|  5.0000e-01|  5.0000e-01|  5.0000e-01|   -5.857444|   -5.976242|   -6.487655|   -6.167320|   -6.139349|   -8.781316|    1.758382|
|         130|  6.7352e+00|  4.8513e-09|  7.6103e-01|  5.0000e-01|  5.0000e-01|  5.0000e-01|   -5.857520|   -5.976262|   -6.487657|   -6.167388|   -6.139346|   -8.782577|    1.758355|
|         131|  6.7357e+00|  4.8512e-09|  7.6103e-01|  5.0000e-01|  5.0000e-01|  5.0000e-01|   -5.857598|   -5.976284|   -6.487658|   -6.167458|   -6.139345|   -8.783843|    1.758328|
|         132|  6.7370e+00|  4.8512e-09|  7.6103e-01|  5.0000e-01|  5.0000e-01|  5.0000e-01|   -5.857679|   -5.976310|   -6.487659|   -6.167531|   -6.139347|   -8.785116|    1.758301|
|         133|  6.7374e+00|  4.8511e-09|  7.6103e-01|  5.0000e-01|  5.0000e-01|  5.0000e-01|   -5.857763|   -5.976338|   -6.487661|   -6.167606|   -6.139350|   -8.786394|    1.758275|
|         134|  6.7381e+00|  4.8510e-09|  7.6103e-01|  5.0000e-01|  5.0000e-01|  5.0000e-01|   -5.857849|   -5.976370|   -6.487662|   -6.167684|   -6.139356|   -8.787678|    1.758248|
|         135|  6.7394e+00|  4.8510e-09|  7.6103e-01|  5.0000e-01|  5.0000e-01|  5.0000e-01|   -5.857938|   -5.976404|   -6.487663|   -6.167765|   -6.139365|   -8.788967|    1.758221|
|         136|  6.7412e+00|  4.8509e-09|  7.6103e-01|  5.0000e-01|  5.0000e-01|  5.0000e-01|   -5.858030|   -5.976441|   -6.487664|   -6.167849|   -6.139376|   -8.790262|    1.758195|
|         137|  6.7410e+00|  4.8508e-09|  7.6103e-01|  5.0000e-01|  5.0000e-01|  5.0000e-01|   -5.858125|   -5.976481|   -6.487665|   -6.167935|   -6.139388|   -8.791562|    1.758168|
|         138|  6.7418e+00|  4.8508e-09|  7.6103e-01|  5.0000e-01|  5.0000e-01|  5.0000e-01|   -5.858222|   -5.976524|   -6.487664|   -6.168024|   -6.139403|   -8.792867|    1.758141|
|         139|  6.7430e+00|  4.8507e-09|  7.6103e-01|  5.0000e-01|  5.0000e-01|  5.0000e-01|   -5.858321|   -5.976570|   -6.487663|   -6.168115|   -6.139420|   -8.794178|    1.758115|
|         140|  6.7434e+00|  4.8506e-09|  7.6103e-01|  5.0000e-01|  5.0000e-01|  5.0000e-01|   -5.858424|   -5.976619|   -6.487663|   -6.168210|   -6.139440|   -8.795492|    1.758088|
|         141|  6.7447e+00|  4.8506e-09|  7.6103e-01|  5.0000e-01|  5.0000e-01|  5.0000e-01|   -5.858529|   -5.976670|   -6.487662|   -6.168306|   -6.139462|   -8.796812|    1.758062|
|         142|  6.7449e+00|  4.8505e-09|  7.6103e-01|  5.0000e-01|  5.0000e-01|  5.0000e-01|   -5.858636|   -5.976725|   -6.487661|   -6.168406|   -6.139486|   -8.798136|    1.758036|
|         143|  6.7454e+00|  4.8504e-09|  7.6103e-01|  5.0000e-01|  5.0000e-01|  5.0000e-01|   -5.858746|   -5.976782|   -6.487659|   -6.168508|   -6.139512|   -8.799464|    1.758009|
|         144|  6.7452e+00|  4.8504e-09|  7.6103e-01|  5.0000e-01|  5.0000e-01|  5.0000e-01|   -5.858859|   -5.976843|   -6.487657|   -6.168613|   -6.139540|   -8.800796|    1.757983|
|         145|  6.7456e+00|  4.8503e-09|  7.6103e-01|  5.0000e-01|  5.0000e-01|  5.0000e-01|   -5.858974|   -5.976906|   -6.487655|   -6.168721|   -6.139571|   -8.802132|    1.757956|
|         146|  6.7464e+00|  4.8502e-09|  7.6103e-01|  5.0000e-01|  5.0000e-01|  5.0000e-01|   -5.859092|   -5.976972|   -6.487651|   -6.168831|   -6.139603|   -8.803471|    1.757930|
|         147|  6.7470e+00|  4.8502e-09|  7.6103e-01|  5.0000e-01|  5.0000e-01|  5.0000e-01|   -5.859212|   -5.977041|   -6.487646|   -6.168944|   -6.139638|   -8.804814|    1.757904|
|         148|  6.7475e+00|  4.8501e-09|  7.6103e-01|  5.0000e-01|  5.0000e-01|  5.0000e-01|   -5.859335|   -5.977113|   -6.487644|   -6.169059|   -6.139676|   -8.806161|    1.757877|
|         149|  6.7483e+00|  4.8500e-09|  7.6103e-01|  5.0000e-01|  5.0000e-01|  5.0000e-01|   -5.859460|   -5.977188|   -6.487640|   -6.169177|   -6.139715|   -8.807510|    1.757851|
|         150|  6.7486e+00|  4.8500e-09|  7.6103e-01|  5.0000e-01|  5.0000e-01|  5.0000e-01|   -5.859588|   -5.977265|   -6.487635|   -6.169298|   -6.139757|   -8.808862|    1.757825|
+-----------------------------------------------------------------------+
|        File Writing Summary       |              Filename             |
+-----------------------------------------------------------------------+
|SU2 binary restart                 |restart_flow.dat                   |
|Paraview                           |flow.vtu                           |
|Paraview surface                   |surface_flow.vtu                   |
+-----------------------------------------------------------------------+
+-------------------------------------------------------------------------------------------------------------------------------------------------------------------------------------+
|  Inner_Iter|   Time(sec)|      Min DT|      Max DT|     Min CFL|     Max CFL|     Avg CFL|    rms[Rho]|   rms[RhoU]|   rms[RhoV]|   rms[RhoW]|   rms[RhoE]|     rms[nu]|          CD|
+-------------------------------------------------------------------------------------------------------------------------------------------------------------------------------------+
|         151|  6.8953e+00|  4.8499e-09|  7.6103e-01|  5.0000e-01|  5.0000e-01|  5.0000e-01|   -5.859718|   -5.977346|   -6.487630|   -6.169421|   -6.139801|   -8.810217|    1.757799|
|         152|  6.8984e+00|  4.8498e-09|  7.6103e-01|  5.0000e-01|  5.0000e-01|  5.0000e-01|   -5.859850|   -5.977429|   -6.487623|   -6.169547|   -6.139847|   -8.811574|    1.757773|
|         153|  6.8998e+00|  4.8498e-09|  7.6103e-01|  5.0000e-01|  5.0000e-01|  5.0000e-01|   -5.859985|   -5.977514|   -6.487615|   -6.169674|   -6.139894|   -8.812933|    1.757747|
|         154|  6.8994e+00|  4.8497e-09|  7.6103e-01|  5.0000e-01|  5.0000e-01|  5.0000e-01|   -5.860121|   -5.977602|   -6.487607|   -6.169804|   -6.139943|   -8.814294|    1.757721|
|         155|  6.8999e+00|  4.8497e-09|  7.6103e-01|  5.0000e-01|  5.0000e-01|  5.0000e-01|   -5.860260|   -5.977693|   -6.487598|   -6.169937|   -6.139995|   -8.815657|    1.757695|
|         156|  6.9003e+00|  4.8496e-09|  7.6103e-01|  5.0000e-01|  5.0000e-01|  5.0000e-01|   -5.860401|   -5.977787|   -6.487588|   -6.170071|   -6.140048|   -8.817021|    1.757669|
|         157|  6.8992e+00|  4.8495e-09|  7.6103e-01|  5.0000e-01|  5.0000e-01|  5.0000e-01|   -5.860544|   -5.977884|   -6.487578|   -6.170209|   -6.140104|   -8.818386|    1.757643|
|         158|  6.8981e+00|  4.8495e-09|  7.6103e-01|  5.0000e-01|  5.0000e-01|  5.0000e-01|   -5.860690|   -5.977983|   -6.487567|   -6.170348|   -6.140162|   -8.819752|    1.757617|
|         159|  6.8961e+00|  4.8494e-09|  7.6103e-01|  5.0000e-01|  5.0000e-01|  5.0000e-01|   -5.860838|   -5.978085|   -6.487556|   -6.170490|   -6.140222|   -8.821119|    1.757591|
|         160|  6.8954e+00|  4.8493e-09|  7.6103e-01|  5.0000e-01|  5.0000e-01|  5.0000e-01|   -5.860988|   -5.978190|   -6.487544|   -6.170635|   -6.140284|   -8.822486|    1.757565|
|         161|  6.8941e+00|  4.8493e-09|  7.6103e-01|  5.0000e-01|  5.0000e-01|  5.0000e-01|   -5.861140|   -5.978297|   -6.487532|   -6.170781|   -6.140349|   -8.823853|    1.757539|
|         162|  6.8928e+00|  4.8492e-09|  7.6103e-01|  5.0000e-01|  5.0000e-01|  5.0000e-01|   -5.861295|   -5.978407|   -6.487521|   -6.170930|   -6.140415|   -8.825220|    1.757514|
|         163|  6.8919e+00|  4.8492e-09|  7.6103e-01|  5.0000e-01|  5.0000e-01|  5.0000e-01|   -5.861452|   -5.978520|   -6.487509|   -6.171082|   -6.140484|   -8.826587|    1.757488|
|         164|  6.8909e+00|  4.8491e-09|  7.6103e-01|  5.0000e-01|  5.0000e-01|  5.0000e-01|   -5.861612|   -5.978636|   -6.487497|   -6.171235|   -6.140555|   -8.827952|    1.757462|
|         165|  6.8902e+00|  4.8490e-09|  7.6103e-01|  5.0000e-01|  5.0000e-01|  5.0000e-01|   -5.861773|   -5.978754|   -6.487485|   -6.171391|   -6.140628|   -8.829317|    1.757437|
|         166|  6.8895e+00|  4.8490e-09|  7.6103e-01|  5.0000e-01|  5.0000e-01|  5.0000e-01|   -5.861936|   -5.978875|   -6.487472|   -6.171549|   -6.140703|   -8.830680|    1.757411|
|         167|  6.8879e+00|  4.8489e-09|  7.6103e-01|  5.0000e-01|  5.0000e-01|  5.0000e-01|   -5.862102|   -5.978999|   -6.487459|   -6.171709|   -6.140780|   -8.832041|    1.757386|
|         168|  6.8875e+00|  4.8489e-09|  7.6103e-01|  5.0000e-01|  5.0000e-01|  5.0000e-01|   -5.862270|   -5.979125|   -6.487446|   -6.171871|   -6.140859|   -8.833401|    1.757360|
|         169|  6.8878e+00|  4.8488e-09|  7.6103e-01|  5.0000e-01|  5.0000e-01|  5.0000e-01|   -5.862440|   -5.979254|   -6.487431|   -6.172036|   -6.140940|   -8.834757|    1.757335|
|         170|  6.8874e+00|  4.8487e-09|  7.6103e-01|  5.0000e-01|  5.0000e-01|  5.0000e-01|   -5.862612|   -5.979385|   -6.487416|   -6.172203|   -6.141023|   -8.836112|    1.757309|
|         171|  6.8862e+00|  4.8487e-09|  7.6103e-01|  5.0000e-01|  5.0000e-01|  5.0000e-01|   -5.862786|   -5.979519|   -6.487401|   -6.172371|   -6.141107|   -8.837463|    1.757284|
|         172|  6.8855e+00|  4.8486e-09|  7.6103e-01|  5.0000e-01|  5.0000e-01|  5.0000e-01|   -5.862962|   -5.979655|   -6.487385|   -6.172542|   -6.141194|   -8.838810|    1.757259|
|         173|  6.8847e+00|  4.8486e-09|  7.6103e-01|  5.0000e-01|  5.0000e-01|  5.0000e-01|   -5.863139|   -5.979793|   -6.487369|   -6.172714|   -6.141283|   -8.840154|    1.757233|
|         174|  6.8836e+00|  4.8485e-09|  7.6103e-01|  5.0000e-01|  5.0000e-01|  5.0000e-01|   -5.863319|   -5.979934|   -6.487352|   -6.172888|   -6.141373|   -8.841494|    1.757208|
|         175|  6.8823e+00|  4.8484e-09|  7.6103e-01|  5.0000e-01|  5.0000e-01|  5.0000e-01|   -5.863500|   -5.980077|   -6.487334|   -6.173065|   -6.141465|   -8.842829|    1.757183|
|         176|  6.8815e+00|  4.8484e-09|  7.6103e-01|  5.0000e-01|  5.0000e-01|  5.0000e-01|   -5.863684|   -5.980222|   -6.487317|   -6.173243|   -6.141559|   -8.844160|    1.757158|
|         177|  6.8807e+00|  4.8483e-09|  7.6103e-01|  5.0000e-01|  5.0000e-01|  5.0000e-01|   -5.863869|   -5.980370|   -6.487299|   -6.173423|   -6.141655|   -8.845485|    1.757133|
|         178|  6.8797e+00|  4.8483e-09|  7.6103e-01|  5.0000e-01|  5.0000e-01|  5.0000e-01|   -5.864056|   -5.980520|   -6.487280|   -6.173604|   -6.141752|   -8.846804|    1.757108|
|         179|  6.8788e+00|  4.8482e-09|  7.6103e-01|  5.0000e-01|  5.0000e-01|  5.0000e-01|   -5.864244|   -5.980671|   -6.487260|   -6.173787|   -6.141850|   -8.848117|    1.757083|
|         180|  6.8775e+00|  4.8482e-09|  7.6103e-01|  5.0000e-01|  5.0000e-01|  5.0000e-01|   -5.864433|   -5.980825|   -6.487238|   -6.173971|   -6.141950|   -8.849424|    1.757058|
|         181|  6.8767e+00|  4.8481e-09|  7.6103e-01|  5.0000e-01|  5.0000e-01|  5.0000e-01|   -5.864624|   -5.980981|   -6.487216|   -6.174156|   -6.142051|   -8.850725|    1.757033|
|         182|  6.8753e+00|  4.8480e-09|  7.6103e-01|  5.0000e-01|  5.0000e-01|  5.0000e-01|   -5.864816|   -5.981139|   -6.487193|   -6.174343|   -6.142153|   -8.852017|    1.757008|
|         183|  6.8744e+00|  4.8480e-09|  7.6103e-01|  5.0000e-01|  5.0000e-01|  5.0000e-01|   -5.865009|   -5.981298|   -6.487169|   -6.174531|   -6.142257|   -8.853303|    1.756983|
|         184|  6.8733e+00|  4.8479e-09|  7.6103e-01|  5.0000e-01|  5.0000e-01|  5.0000e-01|   -5.865204|   -5.981460|   -6.487145|   -6.174720|   -6.142362|   -8.854580|    1.756958|
|         185|  6.8725e+00|  4.8479e-09|  7.6103e-01|  5.0000e-01|  5.0000e-01|  5.0000e-01|   -5.865401|   -5.981624|   -6.487120|   -6.174911|   -6.142469|   -8.855848|    1.756934|
|         186|  6.8719e+00|  4.8478e-09|  7.6103e-01|  5.0000e-01|  5.0000e-01|  5.0000e-01|   -5.865599|   -5.981790|   -6.487095|   -6.175104|   -6.142577|   -8.857108|    1.756909|
|         187|  6.8720e+00|  4.8478e-09|  7.6103e-01|  5.0000e-01|  5.0000e-01|  5.0000e-01|   -5.865798|   -5.981958|   -6.487069|   -6.175297|   -6.142687|   -8.858358|    1.756885|
|         188|  6.8719e+00|  4.8477e-09|  7.6103e-01|  5.0000e-01|  5.0000e-01|  5.0000e-01|   -5.865999|   -5.982128|   -6.487043|   -6.175492|   -6.142798|   -8.859598|    1.756860|
|         189|  6.8712e+00|  4.8477e-09|  7.6103e-01|  5.0000e-01|  5.0000e-01|  5.0000e-01|   -5.866201|   -5.982300|   -6.487017|   -6.175689|   -6.142910|   -8.860828|    1.756836|
|         190|  6.8708e+00|  4.8476e-09|  7.6103e-01|  5.0000e-01|  5.0000e-01|  5.0000e-01|   -5.866405|   -5.982474|   -6.486990|   -6.175887|   -6.143024|   -8.862048|    1.756811|
|         191|  6.8699e+00|  4.8475e-09|  7.6103e-01|  5.0000e-01|  5.0000e-01|  5.0000e-01|   -5.866609|   -5.982649|   -6.486963|   -6.176085|   -6.143140|   -8.863256|    1.756787|
|         192|  6.8686e+00|  4.8475e-09|  7.6103e-01|  5.0000e-01|  5.0000e-01|  5.0000e-01|   -5.866815|   -5.982826|   -6.486935|   -6.176285|   -6.143256|   -8.864452|    1.756762|
|         193|  6.8674e+00|  4.8474e-09|  7.6103e-01|  5.0000e-01|  5.0000e-01|  5.0000e-01|   -5.867023|   -5.983006|   -6.486906|   -6.176487|   -6.143374|   -8.865637|    1.756738|
|         194|  6.8670e+00|  4.8474e-09|  7.6103e-01|  5.0000e-01|  5.0000e-01|  5.0000e-01|   -5.867231|   -5.983187|   -6.486877|   -6.176689|   -6.143493|   -8.866808|    1.756714|
|         195|  6.8669e+00|  4.8473e-09|  7.6103e-01|  5.0000e-01|  5.0000e-01|  5.0000e-01|   -5.867441|   -5.983369|   -6.486847|   -6.176893|   -6.143614|   -8.867967|    1.756690|
|         196|  6.8660e+00|  4.8473e-09|  7.6103e-01|  5.0000e-01|  5.0000e-01|  5.0000e-01|   -5.867651|   -5.983554|   -6.486817|   -6.177098|   -6.143735|   -8.869112|    1.756666|
|         197|  6.8647e+00|  4.8472e-09|  7.6103e-01|  5.0000e-01|  5.0000e-01|  5.0000e-01|   -5.867864|   -5.983740|   -6.486786|   -6.177305|   -6.143859|   -8.870243|    1.756642|
|         198|  6.8632e+00|  4.8472e-09|  7.6103e-01|  5.0000e-01|  5.0000e-01|  5.0000e-01|   -5.868077|   -5.983928|   -6.486756|   -6.177513|   -6.143984|   -8.871359|    1.756618|
|         199|  6.8624e+00|  4.8471e-09|  7.6103e-01|  5.0000e-01|  5.0000e-01|  5.0000e-01|   -5.868293|   -5.984118|   -6.486725|   -6.177722|   -6.144110|   -8.872460|    1.756594|
|         200|  6.8627e+00|  4.8471e-09|  7.6103e-01|  5.0000e-01|  5.0000e-01|  5.0000e-01|   -5.868510|   -5.984310|   -6.486694|   -6.177933|   -6.144239|   -8.873546|    1.756570|
|         201|  6.8624e+00|  4.8470e-09|  7.6103e-01|  5.0000e-01|  5.0000e-01|  5.0000e-01|   -5.868728|   -5.984504|   -6.486663|   -6.178145|   -6.144368|   -8.874616|    1.756546|
|         202|  6.8612e+00|  4.8470e-09|  7.6103e-01|  5.0000e-01|  5.0000e-01|  5.0000e-01|   -5.868947|   -5.984699|   -6.486631|   -6.178359|   -6.144499|   -8.875669|    1.756522|
|         203|  6.8607e+00|  4.8469e-09|  7.6103e-01|  5.0000e-01|  5.0000e-01|  5.0000e-01|   -5.869167|   -5.984896|   -6.486598|   -6.178573|   -6.144631|   -8.876705|    1.756499|
|         204|  6.8623e+00|  4.8468e-09|  7.6103e-01|  5.0000e-01|  5.0000e-01|  5.0000e-01|   -5.869388|   -5.985095|   -6.486565|   -6.178788|   -6.144765|   -8.877724|    1.756475|
|         205|  6.8629e+00|  4.8468e-09|  7.6103e-01|  5.0000e-01|  5.0000e-01|  5.0000e-01|   -5.869610|   -5.985295|   -6.486530|   -6.179005|   -6.144899|   -8.878725|    1.756452|
|         206|  6.8625e+00|  4.8467e-09|  7.6103e-01|  5.0000e-01|  5.0000e-01|  5.0000e-01|   -5.869833|   -5.985496|   -6.486495|   -6.179222|   -6.145034|   -8.879707|    1.756428|
|         207|  6.8614e+00|  4.8467e-09|  7.6103e-01|  5.0000e-01|  5.0000e-01|  5.0000e-01|   -5.870057|   -5.985700|   -6.486459|   -6.179441|   -6.145171|   -8.880670|    1.756405|
|         208|  6.8613e+00|  4.8466e-09|  7.6103e-01|  5.0000e-01|  5.0000e-01|  5.0000e-01|   -5.870281|   -5.985904|   -6.486423|   -6.179660|   -6.145308|   -8.881614|    1.756381|
|         209|  6.8604e+00|  4.8466e-09|  7.6103e-01|  5.0000e-01|  5.0000e-01|  5.0000e-01|   -5.870507|   -5.986111|   -6.486386|   -6.179880|   -6.145447|   -8.882538|    1.756358|
|         210|  6.8599e+00|  4.8465e-09|  7.6103e-01|  5.0000e-01|  5.0000e-01|  5.0000e-01|   -5.870734|   -5.986319|   -6.486350|   -6.180101|   -6.145587|   -8.883441|    1.756335|
|         211|  6.8603e+00|  4.8465e-09|  7.6103e-01|  5.0000e-01|  5.0000e-01|  5.0000e-01|   -5.870962|   -5.986528|   -6.486312|   -6.180323|   -6.145729|   -8.884323|    1.756312|
|         212|  6.8600e+00|  4.8464e-09|  7.6103e-01|  5.0000e-01|  5.0000e-01|  5.0000e-01|   -5.871191|   -5.986739|   -6.486274|   -6.180547|   -6.145872|   -8.885184|    1.756289|
|         213|  6.8596e+00|  4.8464e-09|  7.6103e-01|  5.0000e-01|  5.0000e-01|  5.0000e-01|   -5.871421|   -5.986951|   -6.486235|   -6.180771|   -6.146016|   -8.886022|    1.756266|
|         214|  6.8589e+00|  4.8463e-09|  7.6103e-01|  5.0000e-01|  5.0000e-01|  5.0000e-01|   -5.871651|   -5.987165|   -6.486195|   -6.180996|   -6.146160|   -8.886839|    1.756243|
|         215|  6.8587e+00|  4.8463e-09|  7.6103e-01|  5.0000e-01|  5.0000e-01|  5.0000e-01|   -5.871882|   -5.987379|   -6.486153|   -6.181221|   -6.146305|   -8.887632|    1.756220|
|         216|  6.8577e+00|  4.8462e-09|  7.6103e-01|  5.0000e-01|  5.0000e-01|  5.0000e-01|   -5.872113|   -5.987595|   -6.486111|   -6.181447|   -6.146451|   -8.888402|    1.756197|
|         217|  6.8567e+00|  4.8462e-09|  7.6103e-01|  5.0000e-01|  5.0000e-01|  5.0000e-01|   -5.872344|   -5.987813|   -6.486068|   -6.181673|   -6.146598|   -8.889148|    1.756174|
|         218|  6.8558e+00|  4.8461e-09|  7.6103e-01|  5.0000e-01|  5.0000e-01|  5.0000e-01|   -5.872577|   -5.988031|   -6.486024|   -6.181900|   -6.146746|   -8.889869|    1.756151|
|         219|  6.8549e+00|  4.8461e-09|  7.6103e-01|  5.0000e-01|  5.0000e-01|  5.0000e-01|   -5.872809|   -5.988250|   -6.485979|   -6.182128|   -6.146894|   -8.890566|    1.756129|
|         220|  6.8546e+00|  4.8460e-09|  7.6103e-01|  5.0000e-01|  5.0000e-01|  5.0000e-01|   -5.873042|   -5.988470|   -6.485933|   -6.182355|   -6.147042|   -8.891237|    1.756106|
|         221|  6.8541e+00|  4.8460e-09|  7.6103e-01|  5.0000e-01|  5.0000e-01|  5.0000e-01|   -5.873274|   -5.988691|   -6.485886|   -6.182583|   -6.147191|   -8.891883|    1.756084|
|         222|  6.8536e+00|  4.8460e-09|  7.6103e-01|  5.0000e-01|  5.0000e-01|  5.0000e-01|   -5.873507|   -5.988913|   -6.485838|   -6.182811|   -6.147341|   -8.892503|    1.756061|
|         223|  6.8527e+00|  4.8459e-09|  7.6103e-01|  5.0000e-01|  5.0000e-01|  5.0000e-01|   -5.873740|   -5.989136|   -6.485789|   -6.183039|   -6.147491|   -8.893096|    1.756039|
|         224|  6.8533e+00|  4.8459e-09|  7.6103e-01|  5.0000e-01|  5.0000e-01|  5.0000e-01|   -5.873973|   -5.989359|   -6.485740|   -6.183267|   -6.147641|   -8.893662|    1.756017|
|         225|  6.8533e+00|  4.8458e-09|  7.6103e-01|  5.0000e-01|  5.0000e-01|  5.0000e-01|   -5.874207|   -5.989584|   -6.485689|   -6.183496|   -6.147792|   -8.894200|    1.755995|
|         226|  6.8526e+00|  4.8458e-09|  7.6103e-01|  5.0000e-01|  5.0000e-01|  5.0000e-01|   -5.874440|   -5.989809|   -6.485638|   -6.183724|   -6.147944|   -8.894711|    1.755972|
|         227|  6.8524e+00|  4.8457e-09|  7.6103e-01|  5.0000e-01|  5.0000e-01|  5.0000e-01|   -5.874674|   -5.990035|   -6.485587|   -6.183953|   -6.148096|   -8.895193|    1.755950|
|         228|  6.8535e+00|  4.8457e-09|  7.6103e-01|  5.0000e-01|  5.0000e-01|  5.0000e-01|   -5.874907|   -5.990262|   -6.485535|   -6.184182|   -6.148249|   -8.895647|    1.755928|
|         229|  6.8534e+00|  4.8456e-09|  7.6103e-01|  5.0000e-01|  5.0000e-01|  5.0000e-01|   -5.875141|   -5.990490|   -6.485484|   -6.184411|   -6.148402|   -8.896072|    1.755907|
|         230|  6.8530e+00|  4.8456e-09|  7.6103e-01|  5.0000e-01|  5.0000e-01|  5.0000e-01|   -5.875375|   -5.990718|   -6.485431|   -6.184639|   -6.148555|   -8.896468|    1.755885|
|         231|  6.8527e+00|  4.8455e-09|  7.6103e-01|  5.0000e-01|  5.0000e-01|  5.0000e-01|   -5.875609|   -5.990946|   -6.485379|   -6.184868|   -6.148709|   -8.896834|    1.755863|
|         232|  6.8533e+00|  4.8455e-09|  7.6103e-01|  5.0000e-01|  5.0000e-01|  5.0000e-01|   -5.875843|   -5.991176|   -6.485325|   -6.185097|   -6.148864|   -8.897170|    1.755841|
|         233|  6.8524e+00|  4.8454e-09|  7.6103e-01|  5.0000e-01|  5.0000e-01|  5.0000e-01|   -5.876077|   -5.991406|   -6.485271|   -6.185325|   -6.149018|   -8.897476|    1.755820|
|         234|  6.8518e+00|  4.8454e-09|  7.6103e-01|  5.0000e-01|  5.0000e-01|  5.0000e-01|   -5.876311|   -5.991637|   -6.485216|   -6.185554|   -6.149174|   -8.897751|    1.755798|
|         235|  6.8516e+00|  4.8453e-09|  7.6103e-01|  5.0000e-01|  5.0000e-01|  5.0000e-01|   -5.876545|   -5.991868|   -6.485161|   -6.185782|   -6.149330|   -8.897995|    1.755777|
|         236|  6.8507e+00|  4.8453e-09|  7.6103e-01|  5.0000e-01|  5.0000e-01|  5.0000e-01|   -5.876779|   -5.992100|   -6.485105|   -6.186011|   -6.149486|   -8.898208|    1.755755|
|         237|  6.8497e+00|  4.8453e-09|  7.6103e-01|  5.0000e-01|  5.0000e-01|  5.0000e-01|   -5.877013|   -5.992332|   -6.485050|   -6.186240|   -6.149643|   -8.898389|    1.755734|
|         238|  6.8490e+00|  4.8452e-09|  7.6103e-01|  5.0000e-01|  5.0000e-01|  5.0000e-01|   -5.877247|   -5.992565|   -6.484994|   -6.186468|   -6.149800|   -8.898539|    1.755713|
|         239|  6.8497e+00|  4.8452e-09|  7.6103e-01|  5.0000e-01|  5.0000e-01|  5.0000e-01|   -5.877482|   -5.992799|   -6.484938|   -6.186697|   -6.149958|   -8.898657|    1.755692|
|         240|  6.8514e+00|  4.8451e-09|  7.6103e-01|  5.0000e-01|  5.0000e-01|  5.0000e-01|   -5.877716|   -5.993033|   -6.484882|   -6.186926|   -6.150117|   -8.898743|    1.755671|
|         241|  6.8516e+00|  4.8451e-09|  7.6103e-01|  5.0000e-01|  5.0000e-01|  5.0000e-01|   -5.877950|   -5.993267|   -6.484825|   -6.187154|   -6.150275|   -8.898796|    1.755650|
|         242|  6.8514e+00|  4.8450e-09|  7.6103e-01|  5.0000e-01|  5.0000e-01|  5.0000e-01|   -5.878184|   -5.993502|   -6.484768|   -6.187382|   -6.150434|   -8.898818|    1.755629|
|         243|  6.8514e+00|  4.8450e-09|  7.6103e-01|  5.0000e-01|  5.0000e-01|  5.0000e-01|   -5.878417|   -5.993738|   -6.484710|   -6.187610|   -6.150594|   -8.898806|    1.755608|
|         244|  6.8511e+00|  4.8449e-09|  7.6103e-01|  5.0000e-01|  5.0000e-01|  5.0000e-01|   -5.878651|   -5.993973|   -6.484653|   -6.187837|   -6.150753|   -8.898762|    1.755588|
|         245|  6.8508e+00|  4.8449e-09|  7.6103e-01|  5.0000e-01|  5.0000e-01|  5.0000e-01|   -5.878883|   -5.994209|   -6.484594|   -6.188064|   -6.150913|   -8.898685|    1.755567|
|         246|  6.8505e+00|  4.8449e-09|  7.6103e-01|  5.0000e-01|  5.0000e-01|  5.0000e-01|   -5.879116|   -5.994445|   -6.484534|   -6.188290|   -6.151072|   -8.898575|    1.755546|
|         247|  6.8502e+00|  4.8448e-09|  7.6103e-01|  5.0000e-01|  5.0000e-01|  5.0000e-01|   -5.879347|   -5.994682|   -6.484474|   -6.188516|   -6.151232|   -8.898432|    1.755526|
|         248|  6.8510e+00|  4.8448e-09|  7.6103e-01|  5.0000e-01|  5.0000e-01|  5.0000e-01|   -5.879579|   -5.994918|   -6.484414|   -6.188740|   -6.151392|   -8.898256|    1.755506|
|         249|  6.8507e+00|  4.8447e-09|  7.6103e-01|  5.0000e-01|  5.0000e-01|  5.0000e-01|   -5.879810|   -5.995155|   -6.484354|   -6.188965|   -6.151552|   -8.898047|    1.755485|
|         250|  6.8504e+00|  4.8447e-09|  7.6103e-01|  5.0000e-01|  5.0000e-01|  5.0000e-01|   -5.880041|   -5.995392|   -6.484293|   -6.189189|   -6.151712|   -8.897805|    1.755465|
|         251|  6.8495e+00|  4.8447e-09|  7.6103e-01|  5.0000e-01|  5.0000e-01|  5.0000e-01|   -5.880271|   -5.995629|   -6.484232|   -6.189412|   -6.151873|   -8.897530|    1.755445|
|         252|  6.8487e+00|  4.8446e-09|  7.6103e-01|  5.0000e-01|  5.0000e-01|  5.0000e-01|   -5.880500|   -5.995866|   -6.484172|   -6.189635|   -6.152033|   -8.897221|    1.755425|
|         253|  6.8482e+00|  4.8446e-09|  7.6103e-01|  5.0000e-01|  5.0000e-01|  5.0000e-01|   -5.880730|   -5.996103|   -6.484110|   -6.189856|   -6.152194|   -8.896879|    1.755405|
|         254|  6.8477e+00|  4.8445e-09|  7.6103e-01|  5.0000e-01|  5.0000e-01|  5.0000e-01|   -5.880958|   -5.996340|   -6.484048|   -6.190077|   -6.152354|   -8.896505|    1.755385|
|         255|  6.8468e+00|  4.8445e-09|  7.6103e-01|  5.0000e-01|  5.0000e-01|  5.0000e-01|   -5.881186|   -5.996578|   -6.483985|   -6.190298|   -6.152515|   -8.896097|    1.755366|
|         256|  6.8465e+00|  4.8444e-09|  7.6103e-01|  5.0000e-01|  5.0000e-01|  5.0000e-01|   -5.881413|   -5.996815|   -6.483922|   -6.190517|   -6.152675|   -8.895657|    1.755346|
|         257|  6.8465e+00|  4.8444e-09|  7.6103e-01|  5.0000e-01|  5.0000e-01|  5.0000e-01|   -5.881639|   -5.997051|   -6.483857|   -6.190735|   -6.152835|   -8.895184|    1.755326|
|         258|  6.8464e+00|  4.8444e-09|  7.6103e-01|  5.0000e-01|  5.0000e-01|  5.0000e-01|   -5.881864|   -5.997288|   -6.483791|   -6.190952|   -6.152995|   -8.894678|    1.755307|
|         259|  6.8454e+00|  4.8443e-09|  7.6103e-01|  5.0000e-01|  5.0000e-01|  5.0000e-01|   -5.882088|   -5.997524|   -6.483725|   -6.191168|   -6.153154|   -8.894139|    1.755288|
|         260|  6.8451e+00|  4.8443e-09|  7.6103e-01|  5.0000e-01|  5.0000e-01|  5.0000e-01|   -5.882310|   -5.997759|   -6.483657|   -6.191383|   -6.153312|   -8.893569|    1.755268|
|         261|  6.8458e+00|  4.8442e-09|  7.6103e-01|  5.0000e-01|  5.0000e-01|  5.0000e-01|   -5.882531|   -5.997994|   -6.483588|   -6.191596|   -6.153470|   -8.892966|    1.755249|
|         262|  6.8454e+00|  4.8442e-09|  7.6103e-01|  5.0000e-01|  5.0000e-01|  5.0000e-01|   -5.882751|   -5.998229|   -6.483519|   -6.191808|   -6.153627|   -8.892331|    1.755230|
|         263|  6.8449e+00|  4.8442e-09|  7.6103e-01|  5.0000e-01|  5.0000e-01|  5.0000e-01|   -5.882970|   -5.998462|   -6.483448|   -6.192018|   -6.153784|   -8.891665|    1.755211|
|         264|  6.8449e+00|  4.8441e-09|  7.6103e-01|  5.0000e-01|  5.0000e-01|  5.0000e-01|   -5.883187|   -5.998696|   -6.483378|   -6.192228|   -6.153941|   -8.890967|    1.755192|
|         265|  6.8441e+00|  4.8441e-09|  7.6103e-01|  5.0000e-01|  5.0000e-01|  5.0000e-01|   -5.883404|   -5.998928|   -6.483307|   -6.192436|   -6.154097|   -8.890237|    1.755173|
|         266|  6.8437e+00|  4.8440e-09|  7.6103e-01|  5.0000e-01|  5.0000e-01|  5.0000e-01|   -5.883619|   -5.999160|   -6.483235|   -6.192642|   -6.154252|   -8.889477|    1.755155|
|         267|  6.8434e+00|  4.8440e-09|  7.6103e-01|  5.0000e-01|  5.0000e-01|  5.0000e-01|   -5.883832|   -5.999391|   -6.483162|   -6.192847|   -6.154407|   -8.888686|    1.755136|
|         268|  6.8438e+00|  4.8440e-09|  7.6103e-01|  5.0000e-01|  5.0000e-01|  5.0000e-01|   -5.884044|   -5.999621|   -6.483088|   -6.193050|   -6.154561|   -8.887865|    1.755117|
|         269|  6.8433e+00|  4.8439e-09|  7.6103e-01|  5.0000e-01|  5.0000e-01|  5.0000e-01|   -5.884254|   -5.999850|   -6.483013|   -6.193252|   -6.154713|   -8.887013|    1.755099|
|         270|  6.8432e+00|  4.8439e-09|  7.6103e-01|  5.0000e-01|  5.0000e-01|  5.0000e-01|   -5.884462|   -6.000078|   -6.482938|   -6.193451|   -6.154865|   -8.886132|    1.755081|
|         271|  6.8430e+00|  4.8438e-09|  7.6103e-01|  5.0000e-01|  5.0000e-01|  5.0000e-01|   -5.884669|   -6.000305|   -6.482862|   -6.193649|   -6.155017|   -8.885221|    1.755062|
|         272|  6.8428e+00|  4.8438e-09|  7.6103e-01|  5.0000e-01|  5.0000e-01|  5.0000e-01|   -5.884875|   -6.000531|   -6.482785|   -6.193845|   -6.155168|   -8.884281|    1.755044|
|         273|  6.8426e+00|  4.8438e-09|  7.6103e-01|  5.0000e-01|  5.0000e-01|  5.0000e-01|   -5.885079|   -6.000757|   -6.482708|   -6.194040|   -6.155318|   -8.883312|    1.755026|
|         274|  6.8426e+00|  4.8437e-09|  7.6103e-01|  5.0000e-01|  5.0000e-01|  5.0000e-01|   -5.885281|   -6.000981|   -6.482630|   -6.194232|   -6.155467|   -8.882315|    1.755008|
|         275|  6.8428e+00|  4.8437e-09|  7.6103e-01|  5.0000e-01|  5.0000e-01|  5.0000e-01|   -5.885481|   -6.001205|   -6.482552|   -6.194422|   -6.155616|   -8.881289|    1.754991|
|         276|  6.8435e+00|  4.8437e-09|  7.6103e-01|  5.0000e-01|  5.0000e-01|  5.0000e-01|   -5.885680|   -6.001427|   -6.482473|   -6.194611|   -6.155763|   -8.880236|    1.754973|
|         277|  6.8437e+00|  4.8436e-09|  7.6103e-01|  5.0000e-01|  5.0000e-01|  5.0000e-01|   -5.885877|   -6.001648|   -6.482394|   -6.194797|   -6.155910|   -8.879156|    1.754955|
|         278|  6.8435e+00|  4.8436e-09|  7.6103e-01|  5.0000e-01|  5.0000e-01|  5.0000e-01|   -5.886072|   -6.001868|   -6.482314|   -6.194981|   -6.156055|   -8.878049|    1.754938|
|         279|  6.8434e+00|  4.8435e-09|  7.6103e-01|  5.0000e-01|  5.0000e-01|  5.0000e-01|   -5.886265|   -6.002086|   -6.482234|   -6.195163|   -6.156200|   -8.876916|    1.754920|
|         280|  6.8433e+00|  4.8435e-09|  7.6103e-01|  5.0000e-01|  5.0000e-01|  5.0000e-01|   -5.886455|   -6.002303|   -6.482153|   -6.195343|   -6.156343|   -8.875756|    1.754903|
|         281|  6.8427e+00|  4.8435e-09|  7.6103e-01|  5.0000e-01|  5.0000e-01|  5.0000e-01|   -5.886644|   -6.002519|   -6.482071|   -6.195520|   -6.156485|   -8.874571|    1.754886|
|         282|  6.8419e+00|  4.8434e-09|  7.6103e-01|  5.0000e-01|  5.0000e-01|  5.0000e-01|   -5.886831|   -6.002734|   -6.481988|   -6.195696|   -6.156626|   -8.873361|    1.754868|
|         283|  6.8413e+00|  4.8434e-09|  7.6103e-01|  5.0000e-01|  5.0000e-01|  5.0000e-01|   -5.887016|   -6.002947|   -6.481906|   -6.195869|   -6.156766|   -8.872126|    1.754851|
|         284|  6.8414e+00|  4.8434e-09|  7.6103e-01|  5.0000e-01|  5.0000e-01|  5.0000e-01|   -5.887198|   -6.003159|   -6.481823|   -6.196040|   -6.156905|   -8.870867|    1.754834|
|         285|  6.8412e+00|  4.8433e-09|  7.6103e-01|  5.0000e-01|  5.0000e-01|  5.0000e-01|   -5.887379|   -6.003369|   -6.481739|   -6.196208|   -6.157043|   -8.869584|    1.754818|
|         286|  6.8409e+00|  4.8433e-09|  7.6103e-01|  5.0000e-01|  5.0000e-01|  5.0000e-01|   -5.887556|   -6.003577|   -6.481654|   -6.196374|   -6.157178|   -8.868278|    1.754801|
|         287|  6.8403e+00|  4.8433e-09|  7.6103e-01|  5.0000e-01|  5.0000e-01|  5.0000e-01|   -5.887731|   -6.003784|   -6.481568|   -6.196537|   -6.157313|   -8.866948|    1.754784|
|         288|  6.8405e+00|  4.8432e-09|  7.6103e-01|  5.0000e-01|  5.0000e-01|  5.0000e-01|   -5.887904|   -6.003988|   -6.481482|   -6.196697|   -6.157446|   -8.865597|    1.754768|
|         289|  6.8402e+00|  4.8432e-09|  7.6103e-01|  5.0000e-01|  5.0000e-01|  5.0000e-01|   -5.888074|   -6.004190|   -6.481395|   -6.196855|   -6.157577|   -8.864223|    1.754751|
|         290|  6.8400e+00|  4.8432e-09|  7.6103e-01|  5.0000e-01|  5.0000e-01|  5.0000e-01|   -5.888242|   -6.004391|   -6.481307|   -6.197010|   -6.157706|   -8.862829|    1.754735|
|         291|  6.8394e+00|  4.8431e-09|  7.6103e-01|  5.0000e-01|  5.0000e-01|  5.0000e-01|   -5.888407|   -6.004589|   -6.481219|   -6.197162|   -6.157835|   -8.861413|    1.754719|
|         292|  6.8390e+00|  4.8431e-09|  7.6103e-01|  5.0000e-01|  5.0000e-01|  5.0000e-01|   -5.888569|   -6.004786|   -6.481131|   -6.197312|   -6.157961|   -8.859976|    1.754703|
|         293|  6.8387e+00|  4.8430e-09|  7.6103e-01|  5.0000e-01|  5.0000e-01|  5.0000e-01|   -5.888729|   -6.004980|   -6.481041|   -6.197458|   -6.158086|   -8.858520|    1.754687|
|         294|  6.8389e+00|  4.8430e-09|  7.6103e-01|  5.0000e-01|  5.0000e-01|  5.0000e-01|   -5.888886|   -6.005173|   -6.480951|   -6.197602|   -6.158209|   -8.857044|    1.754671|
|         295|  6.8385e+00|  4.8430e-09|  7.6103e-01|  5.0000e-01|  5.0000e-01|  5.0000e-01|   -5.889041|   -6.005363|   -6.480860|   -6.197742|   -6.158331|   -8.855550|    1.754655|
|         296|  6.8379e+00|  4.8429e-09|  7.6103e-01|  5.0000e-01|  5.0000e-01|  5.0000e-01|   -5.889193|   -6.005551|   -6.480769|   -6.197881|   -6.158452|   -8.854036|    1.754639|
|         297|  6.8371e+00|  4.8429e-09|  7.6103e-01|  5.0000e-01|  5.0000e-01|  5.0000e-01|   -5.889342|   -6.005738|   -6.480678|   -6.198016|   -6.158570|   -8.852505|    1.754624|
|         298|  6.8364e+00|  4.8429e-09|  7.6103e-01|  5.0000e-01|  5.0000e-01|  5.0000e-01|   -5.889489|   -6.005922|   -6.480587|   -6.198148|   -6.158687|   -8.850956|    1.754608|
|         299|  6.8363e+00|  4.8428e-09|  7.6103e-01|  5.0000e-01|  5.0000e-01|  5.0000e-01|   -5.889633|   -6.006103|   -6.480495|   -6.198277|   -6.158802|   -8.849391|    1.754593|
|         300|  6.8363e+00|  4.8428e-09|  7.6103e-01|  5.0000e-01|  5.0000e-01|  5.0000e-01|   -5.889773|   -6.006282|   -6.480402|   -6.198403|   -6.158916|   -8.847808|    1.754578|
+-----------------------------------------------------------------------+
|        File Writing Summary       |              Filename             |
+-----------------------------------------------------------------------+
|SU2 binary restart                 |restart_flow.dat                   |
|Paraview                           |flow.vtu                           |
|Paraview surface                   |surface_flow.vtu                   |
+-----------------------------------------------------------------------+
+-------------------------------------------------------------------------------------------------------------------------------------------------------------------------------------+
|  Inner_Iter|   Time(sec)|      Min DT|      Max DT|     Min CFL|     Max CFL|     Avg CFL|    rms[Rho]|   rms[RhoU]|   rms[RhoV]|   rms[RhoW]|   rms[RhoE]|     rms[nu]|          CD|
+-------------------------------------------------------------------------------------------------------------------------------------------------------------------------------------+
|         301|  6.9171e+00|  4.8428e-09|  7.6103e-01|  5.0000e-01|  5.0000e-01|  5.0000e-01|   -5.889911|   -6.006459|   -6.480310|   -6.198526|   -6.159027|   -8.846210|    1.754562|
|         302|  6.9185e+00|  4.8427e-09|  7.6103e-01|  5.0000e-01|  5.0000e-01|  5.0000e-01|   -5.890047|   -6.006634|   -6.480217|   -6.198646|   -6.159137|   -8.844596|    1.754547|
|         303|  6.9184e+00|  4.8427e-09|  7.6103e-01|  5.0000e-01|  5.0000e-01|  5.0000e-01|   -5.890180|   -6.006807|   -6.480124|   -6.198763|   -6.159246|   -8.842967|    1.754532|
|         304|  6.9185e+00|  4.8427e-09|  7.6103e-01|  5.0000e-01|  5.0000e-01|  5.0000e-01|   -5.890309|   -6.006977|   -6.480031|   -6.198877|   -6.159352|   -8.841323|    1.754518|
|         305|  6.9180e+00|  4.8426e-09|  7.6103e-01|  5.0000e-01|  5.0000e-01|  5.0000e-01|   -5.890436|   -6.007144|   -6.479937|   -6.198988|   -6.159457|   -8.839665|    1.754503|
|         306|  6.9173e+00|  4.8426e-09|  7.6103e-01|  5.0000e-01|  5.0000e-01|  5.0000e-01|   -5.890560|   -6.007309|   -6.479843|   -6.199095|   -6.159559|   -8.837994|    1.754488|
|         307|  6.9167e+00|  4.8426e-09|  7.6103e-01|  5.0000e-01|  5.0000e-01|  5.0000e-01|   -5.890681|   -6.007472|   -6.479749|   -6.199199|   -6.159660|   -8.836309|    1.754474|
|         308|  6.9171e+00|  4.8425e-09|  7.6103e-01|  5.0000e-01|  5.0000e-01|  5.0000e-01|   -5.890799|   -6.007632|   -6.479654|   -6.199299|   -6.159759|   -8.834611|    1.754459|
|         309|  6.9169e+00|  4.8425e-09|  7.6103e-01|  5.0000e-01|  5.0000e-01|  5.0000e-01|   -5.890913|   -6.007789|   -6.479559|   -6.199396|   -6.159856|   -8.832902|    1.754445|
|         310|  6.9169e+00|  4.8425e-09|  7.6103e-01|  5.0000e-01|  5.0000e-01|  5.0000e-01|   -5.891025|   -6.007944|   -6.479463|   -6.199490|   -6.159950|   -8.831180|    1.754431|
|         311|  6.9158e+00|  4.8425e-09|  7.6103e-01|  5.0000e-01|  5.0000e-01|  5.0000e-01|   -5.891133|   -6.008096|   -6.479368|   -6.199581|   -6.160043|   -8.829447|    1.754417|
|         312|  6.9150e+00|  4.8424e-09|  7.6103e-01|  5.0000e-01|  5.0000e-01|  5.0000e-01|   -5.891239|   -6.008246|   -6.479273|   -6.199668|   -6.160134|   -8.827703|    1.754403|
|         313|  6.9142e+00|  4.8424e-09|  7.6103e-01|  5.0000e-01|  5.0000e-01|  5.0000e-01|   -5.891341|   -6.008393|   -6.479177|   -6.199751|   -6.160223|   -8.825948|    1.754389|
|         314|  6.9137e+00|  4.8424e-09|  7.6103e-01|  5.0000e-01|  5.0000e-01|  5.0000e-01|   -5.891441|   -6.008538|   -6.479082|   -6.199831|   -6.160310|   -8.824183|    1.754375|
|         315|  6.9126e+00|  4.8423e-09|  7.6103e-01|  5.0000e-01|  5.0000e-01|  5.0000e-01|   -5.891537|   -6.008679|   -6.478987|   -6.199908|   -6.160395|   -8.822409|    1.754362|
|         316|  6.9118e+00|  4.8423e-09|  7.6103e-01|  5.0000e-01|  5.0000e-01|  5.0000e-01|   -5.891631|   -6.008819|   -6.478893|   -6.199981|   -6.160478|   -8.820625|    1.754348|
|         317|  6.9117e+00|  4.8423e-09|  7.6103e-01|  5.0000e-01|  5.0000e-01|  5.0000e-01|   -5.891722|   -6.008955|   -6.478798|   -6.200051|   -6.160560|   -8.818833|    1.754335|
|         318|  6.9107e+00|  4.8422e-09|  7.6103e-01|  5.0000e-01|  5.0000e-01|  5.0000e-01|   -5.891809|   -6.009089|   -6.478704|   -6.200117|   -6.160640|   -8.817032|    1.754322|
|         319|  6.9098e+00|  4.8422e-09|  7.6103e-01|  5.0000e-01|  5.0000e-01|  5.0000e-01|   -5.891894|   -6.009220|   -6.478610|   -6.200180|   -6.160717|   -8.815224|    1.754309|
|         320|  6.9092e+00|  4.8422e-09|  7.6103e-01|  5.0000e-01|  5.0000e-01|  5.0000e-01|   -5.891975|   -6.009348|   -6.478516|   -6.200239|   -6.160793|   -8.813407|    1.754296|
|         321|  6.9087e+00|  4.8421e-09|  7.6103e-01|  5.0000e-01|  5.0000e-01|  5.0000e-01|   -5.892053|   -6.009473|   -6.478421|   -6.200295|   -6.160866|   -8.811584|    1.754283|
|         322|  6.9084e+00|  4.8421e-09|  7.6103e-01|  5.0000e-01|  5.0000e-01|  5.0000e-01|   -5.892129|   -6.009595|   -6.478328|   -6.200347|   -6.160938|   -8.809753|    1.754270|
|         323|  6.9075e+00|  4.8421e-09|  7.6103e-01|  5.0000e-01|  5.0000e-01|  5.0000e-01|   -5.892201|   -6.009715|   -6.478235|   -6.200397|   -6.161008|   -8.807917|    1.754257|
|         324|  6.9067e+00|  4.8421e-09|  7.6103e-01|  5.0000e-01|  5.0000e-01|  5.0000e-01|   -5.892270|   -6.009832|   -6.478141|   -6.200442|   -6.161075|   -8.806074|    1.754245|
|         325|  6.9061e+00|  4.8420e-09|  7.6103e-01|  5.0000e-01|  5.0000e-01|  5.0000e-01|   -5.892336|   -6.009947|   -6.478048|   -6.200484|   -6.161141|   -8.804226|    1.754232|
|         326|  6.9053e+00|  4.8420e-09|  7.6103e-01|  5.0000e-01|  5.0000e-01|  5.0000e-01|   -5.892399|   -6.010058|   -6.477954|   -6.200522|   -6.161204|   -8.802372|    1.754220|
|         327|  6.9048e+00|  4.8420e-09|  7.6103e-01|  5.0000e-01|  5.0000e-01|  5.0000e-01|   -5.892458|   -6.010166|   -6.477860|   -6.200557|   -6.161265|   -8.800514|    1.754208|
|         328|  6.9039e+00|  4.8419e-09|  7.6103e-01|  5.0000e-01|  5.0000e-01|  5.0000e-01|   -5.892513|   -6.010271|   -6.477765|   -6.200587|   -6.161324|   -8.798651|    1.754195|
|         329|  6.9031e+00|  4.8419e-09|  7.6103e-01|  5.0000e-01|  5.0000e-01|  5.0000e-01|   -5.892565|   -6.010373|   -6.477670|   -6.200614|   -6.161380|   -8.796783|    1.754183|
|         330|  6.9024e+00|  4.8419e-09|  7.6103e-01|  5.0000e-01|  5.0000e-01|  5.0000e-01|   -5.892615|   -6.010473|   -6.477577|   -6.200637|   -6.161434|   -8.794913|    1.754172|
|         331|  6.9018e+00|  4.8418e-09|  7.6103e-01|  5.0000e-01|  5.0000e-01|  5.0000e-01|   -5.892661|   -6.010569|   -6.477484|   -6.200656|   -6.161487|   -8.793038|    1.754160|
|         332|  6.9015e+00|  4.8418e-09|  7.6103e-01|  5.0000e-01|  5.0000e-01|  5.0000e-01|   -5.892703|   -6.010662|   -6.477390|   -6.200671|   -6.161537|   -8.791160|    1.754148|
|         333|  6.9011e+00|  4.8418e-09|  7.6103e-01|  5.0000e-01|  5.0000e-01|  5.0000e-01|   -5.892742|   -6.010752|   -6.477295|   -6.200682|   -6.161584|   -8.789280|    1.754137|
|         334|  6.9005e+00|  4.8418e-09|  7.6103e-01|  5.0000e-01|  5.0000e-01|  5.0000e-01|   -5.892778|   -6.010840|   -6.477200|   -6.200690|   -6.161629|   -8.787397|    1.754125|
|         335|  6.9001e+00|  4.8417e-09|  7.6103e-01|  5.0000e-01|  5.0000e-01|  5.0000e-01|   -5.892810|   -6.010924|   -6.477105|   -6.200693|   -6.161672|   -8.785512|    1.754114|
|         336|  6.8998e+00|  4.8417e-09|  7.6103e-01|  5.0000e-01|  5.0000e-01|  5.0000e-01|   -5.892838|   -6.011006|   -6.477009|   -6.200692|   -6.161712|   -8.783624|    1.754103|
|         337|  6.8997e+00|  4.8417e-09|  7.6103e-01|  5.0000e-01|  5.0000e-01|  5.0000e-01|   -5.892863|   -6.011084|   -6.476914|   -6.200687|   -6.161750|   -8.781735|    1.754092|
|         338|  6.8990e+00|  4.8417e-09|  7.6103e-01|  5.0000e-01|  5.0000e-01|  5.0000e-01|   -5.892885|   -6.011159|   -6.476817|   -6.200678|   -6.161785|   -8.779845|    1.754081|
|         339|  6.8984e+00|  4.8416e-09|  7.6103e-01|  5.0000e-01|  5.0000e-01|  5.0000e-01|   -5.892902|   -6.011230|   -6.476720|   -6.200666|   -6.161818|   -8.777953|    1.754070|
|         340|  6.8979e+00|  4.8416e-09|  7.6103e-01|  5.0000e-01|  5.0000e-01|  5.0000e-01|   -5.892916|   -6.011298|   -6.476622|   -6.200649|   -6.161848|   -8.776060|    1.754060|
|         341|  6.8973e+00|  4.8416e-09|  7.6103e-01|  5.0000e-01|  5.0000e-01|  5.0000e-01|   -5.892926|   -6.011362|   -6.476524|   -6.200628|   -6.161875|   -8.774167|    1.754049|
|         342|  6.8979e+00|  4.8415e-09|  7.6103e-01|  5.0000e-01|  5.0000e-01|  5.0000e-01|   -5.892932|   -6.011423|   -6.476425|   -6.200603|   -6.161899|   -8.772273|    1.754039|
|         343|  6.8979e+00|  4.8415e-09|  7.6103e-01|  5.0000e-01|  5.0000e-01|  5.0000e-01|   -5.892934|   -6.011481|   -6.476326|   -6.200573|   -6.161921|   -8.770379|    1.754029|
|         344|  6.8973e+00|  4.8415e-09|  7.6103e-01|  5.0000e-01|  5.0000e-01|  5.0000e-01|   -5.892932|   -6.011535|   -6.476226|   -6.200540|   -6.161940|   -8.768486|    1.754018|
|         345|  6.8968e+00|  4.8415e-09|  7.6103e-01|  5.0000e-01|  5.0000e-01|  5.0000e-01|   -5.892926|   -6.011585|   -6.476125|   -6.200502|   -6.161956|   -8.766592|    1.754008|
|         346|  6.8962e+00|  4.8414e-09|  7.6103e-01|  5.0000e-01|  5.0000e-01|  5.0000e-01|   -5.892917|   -6.011632|   -6.476025|   -6.200461|   -6.161969|   -8.764700|    1.753998|
|         347|  6.8957e+00|  4.8414e-09|  7.6103e-01|  5.0000e-01|  5.0000e-01|  5.0000e-01|   -5.892904|   -6.011675|   -6.475924|   -6.200415|   -6.161980|   -8.762808|    1.753989|
|         348|  6.8947e+00|  4.8414e-09|  7.6103e-01|  5.0000e-01|  5.0000e-01|  5.0000e-01|   -5.892886|   -6.011715|   -6.475822|   -6.200365|   -6.161987|   -8.760917|    1.753979|
|         349|  6.8938e+00|  4.8414e-09|  7.6103e-01|  5.0000e-01|  5.0000e-01|  5.0000e-01|   -5.892865|   -6.011751|   -6.475720|   -6.200311|   -6.161992|   -8.759027|    1.753970|
[...]
|        9678|  6.5660e+00|  4.4237e-09|  7.6103e-01|  5.0000e-01|  5.0000e-01|  5.0000e-01|   -6.381682|   -6.520360|   -7.021832|   -6.611575|   -6.639336|   -8.815363|    1.759417|
|        9679|  6.5660e+00|  4.4236e-09|  7.6103e-01|  5.0000e-01|  5.0000e-01|  5.0000e-01|   -6.381571|   -6.520368|   -7.021963|   -6.611563|   -6.639471|   -8.815931|    1.759417|
|        9680|  6.5660e+00|  4.4236e-09|  7.6103e-01|  5.0000e-01|  5.0000e-01|  5.0000e-01|   -6.381450|   -6.520366|   -7.022092|   -6.611543|   -6.639598|   -8.816490|    1.759417|
|        9681|  6.5660e+00|  4.4235e-09|  7.6103e-01|  5.0000e-01|  5.0000e-01|  5.0000e-01|   -6.381321|   -6.520354|   -7.022221|   -6.611517|   -6.639718|   -8.817038|    1.759417|
|        9682|  6.5659e+00|  4.4235e-09|  7.6103e-01|  5.0000e-01|  5.0000e-01|  5.0000e-01|   -6.381182|   -6.520331|   -7.022349|   -6.611483|   -6.639831|   -8.817576|    1.759417|
|        9683|  6.5659e+00|  4.4234e-09|  7.6103e-01|  5.0000e-01|  5.0000e-01|  5.0000e-01|   -6.381034|   -6.520298|   -7.022476|   -6.611441|   -6.639938|   -8.818104|    1.759417|
|        9684|  6.5659e+00|  4.4234e-09|  7.6103e-01|  5.0000e-01|  5.0000e-01|  5.0000e-01|   -6.380877|   -6.520255|   -7.022602|   -6.611393|   -6.640037|   -8.818621|    1.759417|
|        9685|  6.5658e+00|  4.4233e-09|  7.6103e-01|  5.0000e-01|  5.0000e-01|  5.0000e-01|   -6.380712|   -6.520202|   -7.022727|   -6.611337|   -6.640130|   -8.819129|    1.759417|
|        9686|  6.5658e+00|  4.4233e-09|  7.6103e-01|  5.0000e-01|  5.0000e-01|  5.0000e-01|   -6.380537|   -6.520139|   -7.022852|   -6.611275|   -6.640215|   -8.819626|    1.759417|
|        9687|  6.5658e+00|  4.4232e-09|  7.6103e-01|  5.0000e-01|  5.0000e-01|  5.0000e-01|   -6.380354|   -6.520066|   -7.022976|   -6.611205|   -6.640294|   -8.820114|    1.759416|
|        9688|  6.5658e+00|  4.4232e-09|  7.6103e-01|  5.0000e-01|  5.0000e-01|  5.0000e-01|   -6.380162|   -6.519983|   -7.023099|   -6.611129|   -6.640366|   -8.820591|    1.759416|
|        9689|  6.5657e+00|  4.4231e-09|  7.6103e-01|  5.0000e-01|  5.0000e-01|  5.0000e-01|   -6.379961|   -6.519889|   -7.023221|   -6.611045|   -6.640431|   -8.821058|    1.759416|
|        9690|  6.5657e+00|  4.4231e-09|  7.6103e-01|  5.0000e-01|  5.0000e-01|  5.0000e-01|   -6.379752|   -6.519787|   -7.023343|   -6.610955|   -6.640489|   -8.821514|    1.759416|
|        9691|  6.5657e+00|  4.4230e-09|  7.6103e-01|  5.0000e-01|  5.0000e-01|  5.0000e-01|   -6.379534|   -6.519674|   -7.023464|   -6.610857|   -6.640541|   -8.821961|    1.759416|
|        9692|  6.5657e+00|  4.4230e-09|  7.6103e-01|  5.0000e-01|  5.0000e-01|  5.0000e-01|   -6.379308|   -6.519552|   -7.023584|   -6.610754|   -6.640586|   -8.822397|    1.759416|
|        9693|  6.5656e+00|  4.4229e-09|  7.6103e-01|  5.0000e-01|  5.0000e-01|  5.0000e-01|   -6.379074|   -6.519420|   -7.023704|   -6.610643|   -6.640624|   -8.822823|    1.759415|
|        9694|  6.5656e+00|  4.4229e-09|  7.6103e-01|  5.0000e-01|  5.0000e-01|  5.0000e-01|   -6.378832|   -6.519278|   -7.023822|   -6.610525|   -6.640655|   -8.823239|    1.759415|
|        9695|  6.5656e+00|  4.4228e-09|  7.6103e-01|  5.0000e-01|  5.0000e-01|  5.0000e-01|   -6.378581|   -6.519128|   -7.023940|   -6.610401|   -6.640680|   -8.823645|    1.759415|
|        9696|  6.5656e+00|  4.4228e-09|  7.6103e-01|  5.0000e-01|  5.0000e-01|  5.0000e-01|   -6.378323|   -6.518967|   -7.024058|   -6.610271|   -6.640698|   -8.824041|    1.759414|
|        9697|  6.5656e+00|  4.4227e-09|  7.6103e-01|  5.0000e-01|  5.0000e-01|  5.0000e-01|   -6.378057|   -6.518798|   -7.024175|   -6.610134|   -6.640710|   -8.824426|    1.759414|
|        9698|  6.5655e+00|  4.4227e-09|  7.6103e-01|  5.0000e-01|  5.0000e-01|  5.0000e-01|   -6.377783|   -6.518619|   -7.024291|   -6.609991|   -6.640715|   -8.824801|    1.759414|
|        9699|  6.5655e+00|  4.4226e-09|  7.6103e-01|  5.0000e-01|  5.0000e-01|  5.0000e-01|   -6.377501|   -6.518432|   -7.024407|   -6.609841|   -6.640713|   -8.825167|    1.759413|
|        9700|  6.5655e+00|  4.4225e-09|  7.6103e-01|  5.0000e-01|  5.0000e-01|  5.0000e-01|   -6.377212|   -6.518235|   -7.024522|   -6.609686|   -6.640706|   -8.825522|    1.759413|
|        9701|  6.5655e+00|  4.4225e-09|  7.6103e-01|  5.0000e-01|  5.0000e-01|  5.0000e-01|   -6.376915|   -6.518030|   -7.024636|   -6.609524|   -6.640691|   -8.825867|    1.759412|
|        9702|  6.5655e+00|  4.4224e-09|  7.6103e-01|  5.0000e-01|  5.0000e-01|  5.0000e-01|   -6.376611|   -6.517815|   -7.024750|   -6.609355|   -6.640671|   -8.826202|    1.759412|
|        9703|  6.5654e+00|  4.4224e-09|  7.6103e-01|  5.0000e-01|  5.0000e-01|  5.0000e-01|   -6.376300|   -6.517592|   -7.024863|   -6.609181|   -6.640643|   -8.826527|    1.759412|
|        9704|  6.5654e+00|  4.4223e-09|  7.6103e-01|  5.0000e-01|  5.0000e-01|  5.0000e-01|   -6.375981|   -6.517361|   -7.024976|   -6.609000|   -6.640610|   -8.826842|    1.759411|
|        9705|  6.5654e+00|  4.4223e-09|  7.6103e-01|  5.0000e-01|  5.0000e-01|  5.0000e-01|   -6.375655|   -6.517120|   -7.025088|   -6.608814|   -6.640570|   -8.827147|    1.759410|
|        9706|  6.5654e+00|  4.4222e-09|  7.6103e-01|  5.0000e-01|  5.0000e-01|  5.0000e-01|   -6.375323|   -6.516871|   -7.025199|   -6.608621|   -6.640524|   -8.827442|    1.759410|
|        9707|  6.5654e+00|  4.4222e-09|  7.6103e-01|  5.0000e-01|  5.0000e-01|  5.0000e-01|   -6.374983|   -6.516614|   -7.025309|   -6.608423|   -6.640472|   -8.827728|    1.759409|
|        9708|  6.5653e+00|  4.4221e-09|  7.6103e-01|  5.0000e-01|  5.0000e-01|  5.0000e-01|   -6.374636|   -6.516349|   -7.025419|   -6.608219|   -6.640413|   -8.828003|    1.759409|
|        9709|  6.5653e+00|  4.4221e-09|  7.6103e-01|  5.0000e-01|  5.0000e-01|  5.0000e-01|   -6.374283|   -6.516075|   -7.025528|   -6.608009|   -6.640349|   -8.828269|    1.759408|
|        9710|  6.5653e+00|  4.4220e-09|  7.6103e-01|  5.0000e-01|  5.0000e-01|  5.0000e-01|   -6.373924|   -6.515793|   -7.025637|   -6.607794|   -6.640278|   -8.828525|    1.759407|
|        9711|  6.5653e+00|  4.4220e-09|  7.6103e-01|  5.0000e-01|  5.0000e-01|  5.0000e-01|   -6.373557|   -6.515504|   -7.025745|   -6.607573|   -6.640202|   -8.828771|    1.759407|
|        9712|  6.5653e+00|  4.4219e-09|  7.6103e-01|  5.0000e-01|  5.0000e-01|  5.0000e-01|   -6.373185|   -6.515206|   -7.025853|   -6.607346|   -6.640119|   -8.829008|    1.759406|
|        9713|  6.5653e+00|  4.4219e-09|  7.6103e-01|  5.0000e-01|  5.0000e-01|  5.0000e-01|   -6.372806|   -6.514901|   -7.025960|   -6.607115|   -6.640031|   -8.829236|    1.759405|
|        9714|  6.5652e+00|  4.4218e-09|  7.6103e-01|  5.0000e-01|  5.0000e-01|  5.0000e-01|   -6.372422|   -6.514588|   -7.026067|   -6.606878|   -6.639937|   -8.829453|    1.759405|
|        9715|  6.5652e+00|  4.4218e-09|  7.6103e-01|  5.0000e-01|  5.0000e-01|  5.0000e-01|   -6.372031|   -6.514267|   -7.026173|   -6.606635|   -6.639837|   -8.829662|    1.759404|
|        9716|  6.5652e+00|  4.4217e-09|  7.6103e-01|  5.0000e-01|  5.0000e-01|  5.0000e-01|   -6.371634|   -6.513940|   -7.026279|   -6.606388|   -6.639731|   -8.829861|    1.759403|
|        9717|  6.5652e+00|  4.4217e-09|  7.6103e-01|  5.0000e-01|  5.0000e-01|  5.0000e-01|   -6.371232|   -6.513604|   -7.026384|   -6.606136|   -6.639620|   -8.830050|    1.759402|
|        9718|  6.5652e+00|  4.4216e-09|  7.6103e-01|  5.0000e-01|  5.0000e-01|  5.0000e-01|   -6.370824|   -6.513262|   -7.026489|   -6.605878|   -6.639503|   -8.830231|    1.759401|
|        9719|  6.5652e+00|  4.4216e-09|  7.6103e-01|  5.0000e-01|  5.0000e-01|  5.0000e-01|   -6.370410|   -6.512913|   -7.026593|   -6.605616|   -6.639380|   -8.830402|    1.759401|
|        9720|  6.5653e+00|  4.4215e-09|  7.6103e-01|  5.0000e-01|  5.0000e-01|  5.0000e-01|   -6.369991|   -6.512556|   -7.026696|   -6.605349|   -6.639252|   -8.830564|    1.759400|
|        9721|  6.5653e+00|  4.4215e-09|  7.6103e-01|  5.0000e-01|  5.0000e-01|  5.0000e-01|   -6.369566|   -6.512193|   -7.026799|   -6.605077|   -6.639119|   -8.830717|    1.759399|
|        9722|  6.5653e+00|  4.4214e-09|  7.6103e-01|  5.0000e-01|  5.0000e-01|  5.0000e-01|   -6.369137|   -6.511823|   -7.026902|   -6.604800|   -6.638980|   -8.830861|    1.759398|
|        9723|  6.5653e+00|  4.4213e-09|  7.6103e-01|  5.0000e-01|  5.0000e-01|  5.0000e-01|   -6.368702|   -6.511446|   -7.027004|   -6.604519|   -6.638836|   -8.830996|    1.759397|
|        9724|  6.5653e+00|  4.4213e-09|  7.6103e-01|  5.0000e-01|  5.0000e-01|  5.0000e-01|   -6.368262|   -6.511063|   -7.027105|   -6.604233|   -6.638687|   -8.831123|    1.759396|
|        9725|  6.5653e+00|  4.4212e-09|  7.6103e-01|  5.0000e-01|  5.0000e-01|  5.0000e-01|   -6.367817|   -6.510673|   -7.027206|   -6.603943|   -6.638532|   -8.831241|    1.759395|
|        9726|  6.5652e+00|  4.4212e-09|  7.6103e-01|  5.0000e-01|  5.0000e-01|  5.0000e-01|   -6.367368|   -6.510278|   -7.027307|   -6.603649|   -6.638373|   -8.831350|    1.759394|
|        9727|  6.5652e+00|  4.4211e-09|  7.6103e-01|  5.0000e-01|  5.0000e-01|  5.0000e-01|   -6.366914|   -6.509876|   -7.027407|   -6.603350|   -6.638208|   -8.831451|    1.759393|
|        9728|  6.5652e+00|  4.4211e-09|  7.6103e-01|  5.0000e-01|  5.0000e-01|  5.0000e-01|   -6.366456|   -6.509468|   -7.027507|   -6.603048|   -6.638039|   -8.831543|    1.759392|
|        9729|  6.5652e+00|  4.4210e-09|  7.6103e-01|  5.0000e-01|  5.0000e-01|  5.0000e-01|   -6.365993|   -6.509054|   -7.027607|   -6.602741|   -6.637864|   -8.831627|    1.759391|
|        9730|  6.5652e+00|  4.4210e-09|  7.6103e-01|  5.0000e-01|  5.0000e-01|  5.0000e-01|   -6.365526|   -6.508634|   -7.027706|   -6.602430|   -6.637685|   -8.831702|    1.759390|
|        9731|  6.5652e+00|  4.4209e-09|  7.6103e-01|  5.0000e-01|  5.0000e-01|  5.0000e-01|   -6.365055|   -6.508209|   -7.027804|   -6.602116|   -6.637501|   -8.831770|    1.759388|
|        9732|  6.5651e+00|  4.4209e-09|  7.6103e-01|  5.0000e-01|  5.0000e-01|  5.0000e-01|   -6.364579|   -6.507778|   -7.027903|   -6.601797|   -6.637312|   -8.831829|    1.759387|
|        9733|  6.5651e+00|  4.4208e-09|  7.6103e-01|  5.0000e-01|  5.0000e-01|  5.0000e-01|   -6.364100|   -6.507341|   -7.028001|   -6.601475|   -6.637119|   -8.831880|    1.759386|
|        9734|  6.5651e+00|  4.4208e-09|  7.6103e-01|  5.0000e-01|  5.0000e-01|  5.0000e-01|   -6.363617|   -6.506899|   -7.028098|   -6.601149|   -6.636921|   -8.831924|    1.759385|
|        9735|  6.5651e+00|  4.4207e-09|  7.6103e-01|  5.0000e-01|  5.0000e-01|  5.0000e-01|   -6.363129|   -6.506453|   -7.028195|   -6.600820|   -6.636718|   -8.831959|    1.759384|
|        9736|  6.5651e+00|  4.4207e-09|  7.6103e-01|  5.0000e-01|  5.0000e-01|  5.0000e-01|   -6.362639|   -6.506000|   -7.028292|   -6.600487|   -6.636511|   -8.831987|    1.759382|
|        9737|  6.5651e+00|  4.4206e-09|  7.6103e-01|  5.0000e-01|  5.0000e-01|  5.0000e-01|   -6.362145|   -6.505543|   -7.028389|   -6.600150|   -6.636300|   -8.832008|    1.759381|
|        9738|  6.5650e+00|  4.4206e-09|  7.6103e-01|  5.0000e-01|  5.0000e-01|  5.0000e-01|   -6.361647|   -6.505082|   -7.028485|   -6.599811|   -6.636084|   -8.832021|    1.759380|
|        9739|  6.5650e+00|  4.4205e-09|  7.6103e-01|  5.0000e-01|  5.0000e-01|  5.0000e-01|   -6.361146|   -6.504615|   -7.028581|   -6.599468|   -6.635864|   -8.832026|    1.759379|
|        9740|  6.5650e+00|  4.4205e-09|  7.6103e-01|  5.0000e-01|  5.0000e-01|  5.0000e-01|   -6.360642|   -6.504144|   -7.028677|   -6.599122|   -6.635640|   -8.832024|    1.759377|
|        9741|  6.5650e+00|  4.4204e-09|  7.6103e-01|  5.0000e-01|  5.0000e-01|  5.0000e-01|   -6.360135|   -6.503668|   -7.028773|   -6.598773|   -6.635412|   -8.832015|    1.759376|
|        9742|  6.5650e+00|  4.4204e-09|  7.6103e-01|  5.0000e-01|  5.0000e-01|  5.0000e-01|   -6.359625|   -6.503188|   -7.028868|   -6.598420|   -6.635180|   -8.831999|    1.759375|
|        9743|  6.5650e+00|  4.4203e-09|  7.6103e-01|  5.0000e-01|  5.0000e-01|  5.0000e-01|   -6.359112|   -6.502704|   -7.028963|   -6.598065|   -6.634944|   -8.831976|    1.759373|
|        9744|  6.5650e+00|  4.4202e-09|  7.6103e-01|  5.0000e-01|  5.0000e-01|  5.0000e-01|   -6.358596|   -6.502215|   -7.029058|   -6.597707|   -6.634704|   -8.831946|    1.759372|
|        9745|  6.5649e+00|  4.4202e-09|  7.6103e-01|  5.0000e-01|  5.0000e-01|  5.0000e-01|   -6.358077|   -6.501722|   -7.029153|   -6.597347|   -6.634460|   -8.831909|    1.759370|
|        9746|  6.5649e+00|  4.4201e-09|  7.6103e-01|  5.0000e-01|  5.0000e-01|  5.0000e-01|   -6.357556|   -6.501226|   -7.029247|   -6.596983|   -6.634213|   -8.831866|    1.759369|
|        9747|  6.5649e+00|  4.4201e-09|  7.6103e-01|  5.0000e-01|  5.0000e-01|  5.0000e-01|   -6.357033|   -6.500726|   -7.029341|   -6.596617|   -6.633962|   -8.831816|    1.759367|
|        9748|  6.5649e+00|  4.4200e-09|  7.6103e-01|  5.0000e-01|  5.0000e-01|  5.0000e-01|   -6.356507|   -6.500222|   -7.029435|   -6.596249|   -6.633707|   -8.831760|    1.759366|
|        9749|  6.5649e+00|  4.4200e-09|  7.6103e-01|  5.0000e-01|  5.0000e-01|  5.0000e-01|   -6.355979|   -6.499714|   -7.029528|   -6.595878|   -6.633448|   -8.831697|    1.759364|
|        9750|  6.5648e+00|  4.4199e-09|  7.6103e-01|  5.0000e-01|  5.0000e-01|  5.0000e-01|   -6.355449|   -6.499203|   -7.029621|   -6.595504|   -6.633187|   -8.831628|    1.759363|
+-----------------------------------------------------------------------+
|        File Writing Summary       |              Filename             |
+-----------------------------------------------------------------------+
|SU2 binary restart                 |restart_flow.dat                   |
|Paraview                           |flow.vtu                           |
|Paraview surface                   |surface_flow.vtu                   |
+-----------------------------------------------------------------------+
+-------------------------------------------------------------------------------------------------------------------------------------------------------------------------------------+
|  Inner_Iter|   Time(sec)|      Min DT|      Max DT|     Min CFL|     Max CFL|     Avg CFL|    rms[Rho]|   rms[RhoU]|   rms[RhoV]|   rms[RhoW]|   rms[RhoE]|     rms[nu]|          CD|
+-------------------------------------------------------------------------------------------------------------------------------------------------------------------------------------+
|        9751|  6.5676e+00|  4.4199e-09|  7.6103e-01|  5.0000e-01|  5.0000e-01|  5.0000e-01|   -6.354916|   -6.498688|   -7.029714|   -6.595128|   -6.632921|   -8.831554|    1.759361|
|        9752|  6.5676e+00|  4.4198e-09|  7.6103e-01|  5.0000e-01|  5.0000e-01|  5.0000e-01|   -6.354382|   -6.498170|   -7.029806|   -6.594750|   -6.632652|   -8.831473|    1.759360|
|        9753|  6.5676e+00|  4.4198e-09|  7.6103e-01|  5.0000e-01|  5.0000e-01|  5.0000e-01|   -6.353845|   -6.497649|   -7.029899|   -6.594370|   -6.632380|   -8.831386|    1.759358|
|        9754|  6.5677e+00|  4.4197e-09|  7.6103e-01|  5.0000e-01|  5.0000e-01|  5.0000e-01|   -6.353307|   -6.497125|   -7.029991|   -6.593988|   -6.632105|   -8.831294|    1.759357|
|        9755|  6.5677e+00|  4.4197e-09|  7.6103e-01|  5.0000e-01|  5.0000e-01|  5.0000e-01|   -6.352767|   -6.496598|   -7.030083|   -6.593604|   -6.631827|   -8.831196|    1.759355|
|        9756|  6.5677e+00|  4.4196e-09|  7.6103e-01|  5.0000e-01|  5.0000e-01|  5.0000e-01|   -6.352226|   -6.496069|   -7.030174|   -6.593218|   -6.631546|   -8.831093|    1.759353|
|        9757|  6.5678e+00|  4.4196e-09|  7.6103e-01|  5.0000e-01|  5.0000e-01|  5.0000e-01|   -6.351683|   -6.495536|   -7.030266|   -6.592830|   -6.631261|   -8.830984|    1.759352|
|        9758|  6.5677e+00|  4.4195e-09|  7.6103e-01|  5.0000e-01|  5.0000e-01|  5.0000e-01|   -6.351138|   -6.495001|   -7.030357|   -6.592440|   -6.630974|   -8.830871|    1.759350|
|        9759|  6.5677e+00|  4.4195e-09|  7.6103e-01|  5.0000e-01|  5.0000e-01|  5.0000e-01|   -6.350593|   -6.494464|   -7.030448|   -6.592049|   -6.630684|   -8.830752|    1.759348|
|        9760|  6.5677e+00|  4.4194e-09|  7.6103e-01|  5.0000e-01|  5.0000e-01|  5.0000e-01|   -6.350046|   -6.493924|   -7.030539|   -6.591656|   -6.630391|   -8.830628|    1.759346|
|        9761|  6.5677e+00|  4.4194e-09|  7.6103e-01|  5.0000e-01|  5.0000e-01|  5.0000e-01|   -6.349498|   -6.493382|   -7.030629|   -6.591261|   -6.630096|   -8.830499|    1.759345|
|        9762|  6.5677e+00|  4.4193e-09|  7.6103e-01|  5.0000e-01|  5.0000e-01|  5.0000e-01|   -6.348949|   -6.492837|   -7.030720|   -6.590865|   -6.629798|   -8.830365|    1.759343|
|        9763|  6.5677e+00|  4.4193e-09|  7.6103e-01|  5.0000e-01|  5.0000e-01|  5.0000e-01|   -6.348399|   -6.492291|   -7.030811|   -6.590468|   -6.629497|   -8.830227|    1.759341|
|        9764|  6.5677e+00|  4.4192e-09|  7.6103e-01|  5.0000e-01|  5.0000e-01|  5.0000e-01|   -6.347849|   -6.491743|   -7.030901|   -6.590070|   -6.629194|   -8.830084|    1.759339|
|        9765|  6.5677e+00|  4.4191e-09|  7.6103e-01|  5.0000e-01|  5.0000e-01|  5.0000e-01|   -6.347298|   -6.491192|   -7.030991|   -6.589670|   -6.628888|   -8.829937|    1.759337|
|        9766|  6.5677e+00|  4.4191e-09|  7.6103e-01|  5.0000e-01|  5.0000e-01|  5.0000e-01|   -6.346746|   -6.490640|   -7.031082|   -6.589269|   -6.628580|   -8.829786|    1.759336|
|        9767|  6.5677e+00|  4.4190e-09|  7.6103e-01|  5.0000e-01|  5.0000e-01|  5.0000e-01|   -6.346193|   -6.490087|   -7.031172|   -6.588867|   -6.628270|   -8.829631|    1.759334|
|        9768|  6.5677e+00|  4.4190e-09|  7.6103e-01|  5.0000e-01|  5.0000e-01|  5.0000e-01|   -6.345640|   -6.489531|   -7.031262|   -6.588464|   -6.627958|   -8.829471|    1.759332|

scontrol show job 1094560
JobId=1094560 JobName=m6_aoa32
   UserId=anthonyy(3152141) GroupId=anthonyy(3152141) MCS_label=N/A
   Priority=687424 Nice=0 Account=rrg-jphickey QOS=normal
   JobState=COMPLETING Reason=TimeLimit Dependency=(null)
   Requeue=0 Restarts=0 BatchFlag=1 Reboot=0 ExitCode=0:15
   RunTime=18:00:07 TimeLimit=18:00:00 TimeMin=N/A
   SubmitTime=2026-03-02T22:41:21 EligibleTime=2026-03-02T22:41:21
   AccrueTime=2026-03-02T22:41:21
   StartTime=2026-03-02T22:41:35 EndTime=2026-03-03T16:41:42 Deadline=N/A
   SuspendTime=None SecsPreSuspend=0 LastSchedEval=2026-03-02T22:41:35 Scheduler=Main
   Partition=compute AllocNode:Sid=tri-login04:2278487
   ReqNodeList=(null) ExcNodeList=(null)
   NodeList=tri[1009,1039]
   BatchHost=tri1009
   NumNodes=2 NumCPUs=384 NumTasks=128 CPUs/Task=1 ReqB:S:C:T=0:0:*:*
   ReqTRES=cpu=128,mem=1534000M,node=2,billing=128
   AllocTRES=cpu=384,mem=1534000M,node=2,billing=384
   Socks/Node=* NtasksPerN:B:S:C=64:0:*:* CoreSpec=*
   MinCPUsNode=64 MinMemoryNode=0 MinTmpDiskNode=0
   Features=(null) DelayBoot=00:00:00
   OverSubscribe=NO Contiguous=0 Licenses=(null) Network=(null)
   Command=/scratch/anthonyy/reentry/orion/cases/m6_aoa32/run.sh
   WorkDir=/scratch/anthonyy/reentry/orion/cases/m6_aoa32
   Comment=/opt/slurm/bin/sbatch --export=NONE --get-user-env=L run.sh 
   StdErr=/scratch/anthonyy/reentry/orion/cases/m6_aoa32/orion_1094560.err
   StdIn=/dev/null
   StdOut=/scratch/anthonyy/reentry/orion/cases/m6_aoa32/orion_1094560.out
   TresPerTask=cpu=1
   

sacct -j 1094560
JobID           JobName    Account    Elapsed  MaxVMSize     MaxRSS  SystemCPU    UserCPU ExitCode 
------------ ---------- ---------- ---------- ---------- ---------- ---------- ---------- -------- 
1094560        m6_aoa32 rrg-jphic+   18:00:07                        00:00.078  00:00.391      0:0 
1094560.bat+      batch rrg-jphic+   18:00:08          0     12508K  00:00.078  00:00.391     0:15 
1094560.ext+     extern rrg-jphic+   18:00:07                         00:00:00   00:00:00      0:0 
1094560.0       SU2_CFD rrg-jphic+   18:00:03                         00:00:00   00:00:00      0:0 

