Nodes:  tri[0299,0740]
Tasks:  128
NPN:    64
Config: /scratch/anthonyy/reentry/orion/config/generated/m1.5_aoa50.cfg

-------------------------------------------------------------------------
|    ___ _   _ ___                                                      |
|   / __| | | |_  )   Release 7.5.1 "Blackbird"                         |
|   \__ \ |_| |/ /                                                      |
|   |___/\___//___|   Suite (Computational Fluid Dynamics Code)         |
|                                                                       |
-------------------------------------------------------------------------
| SU2 Project Website: https://su2code.github.io                        |
|                                                                       |
| The SU2 Project is maintained by the SU2 Foundation                   |
| (http://su2foundation.org)                                            |
-------------------------------------------------------------------------
| Copyright 2012-2023, SU2 Contributors                                 |
|                                                                       |
| SU2 is free software; you can redistribute it and/or                  |
| modify it under the terms of the GNU Lesser General Public            |
| License as published by the Free Software Foundation; either          |
| version 2.1 of the License, or (at your option) any later version.    |
|                                                                       |
| SU2 is distributed in the hope that it will be useful,                |
| but WITHOUT ANY WARRANTY; without even the implied warranty of        |
| MERCHANTABILITY or FITNESS FOR A PARTICULAR PURPOSE. See the GNU      |
| Lesser General Public License for more details.                       |
|                                                                       |
| You should have received a copy of the GNU Lesser General Public      |
| License along with SU2. If not, see <http://www.gnu.org/licenses/>.   |
-------------------------------------------------------------------------

Parsing config file for zone 0

----------------- Physical Case Definition ( Zone 0 ) -------------------
Compressible RANS equations.
Turbulence model: Spalart-Allmaras-noft2
Hybrid RANS/LES: No Hybrid RANS/LES
Mach number: 1.5.
Angle of attack (AoA): 50 deg, and angle of sideslip (AoS): 0 deg.
Reynolds number: 1.71557e+08. Reference length 5.
No restart solution, use the values at infinity (freestream).
Non-Dimensional simulation (V=1.0, Rho=1.0, T=1.0 at the farfield).
The reference area will be computed using y(2D) or z(3D) projection.
The semi-span will be computed using the max y(3D) value.
The reference length is 0.64607 m.
Reference origin for moment evaluation is (0.25, 0, 0).
Surface(s) where the force coefficients are evaluated: ORION_SURFACE.

Input mesh file name: ../../mesh/fine.su2

--------------- Space Numerical Integration ( Zone 0 ) ------------------
Jameson-Schmidt-Turkel scheme (2nd order in space) for the flow inviscid terms.
JST viscous coefficients (2nd & 4th): 0.5, 0.02.
The method includes a grid stretching correction (p = 0.3).
Scalar upwind solver for the turbulence model.
First order integration in space.
Average of gradients with correction (viscous flow terms).
Average of gradients with correction (viscous turbulence terms).
Gradient for upwind reconstruction: Green-Gauss.
Gradient for viscous and source terms: Green-Gauss.

--------------- Time Numerical Integration  ( Zone 0 ) ------------------
Local time stepping (steady state simulation).
Euler implicit method for the flow equations.
FGMRES is used for solving the linear system.
Using a ILU(0) preconditioning.
Convergence criteria of the linear solver: 1e-06.
Max number of linear iterations: 100.
CFL adaptation. Factor down: 0.5, factor up: 1.2,
                lower limit: 0.1, upper limit: 3,
                acceptable linear residual: 0.001.
Courant-Friedrichs-Lewy number:        1
Euler implicit time integration for the turbulence model.

------------------ Convergence Criteria  ( Zone 0 ) ---------------------
Maximum number of solver subiterations: 999999.
Begin convergence monitoring at iteration 5.
Residual minimum value: 1e-8.
Cauchy series min. value: 1e-10.
Number of Cauchy elements: 100.
Begin windowed time average at iteration 0.

-------------------- Output Information ( Zone 0 ) ----------------------
File writing frequency: 
+------------------------------------+
|                     File| Frequency|
+------------------------------------+
|                  RESTART|       150|
|                 PARAVIEW|       150|
|         SURFACE_PARAVIEW|       150|
+------------------------------------+
Writing the convergence history file every 1 inner iterations.
Writing the screen convergence history every 1 inner iterations.
The tabular file format is CSV (.csv).
Convergence history file name: history.
Forces breakdown file name: forces_breakdown.dat.
Surface file name: surface_flow.
Volume file name: flow.
Restart file name: restart_flow.

------------- Config File Boundary Information ( Zone 0 ) ---------------
+-----------------------------------------------------------------------+
|                        Marker Type|                        Marker Name|
+-----------------------------------------------------------------------+
|                          Far-field|                           FARFIELD|
+-----------------------------------------------------------------------+
|                     Heat flux wall|                      ORION_SURFACE|
+-----------------------------------------------------------------------+

-------------------- Output Preprocessing ( Zone 0 ) --------------------

WARNING: SURFACE_PRESSURE_DROP can only be computed for at least 2 surfaces (outlet, inlet, ...)

Screen output fields: INNER_ITER, WALL_TIME, RMS_DENSITY, RMS_MOMENTUM-X, RMS_MOMENTUM-Y, RMS_MOMENTUM-Z, RMS_ENERGY, RMS_NU_TILDE, DRAG
History output group(s): ITER, RMS_RES
Convergence field(s): RMS_DENSITY
Warning: No (valid) fields chosen for time convergence monitoring. Time convergence monitoring inactive.
Volume output fields: MACH, PRESSURE, TEMPERATURE, DENSITY, HEAT_FLUX, Y_PLUS, COORDINATES, SOLUTION

------------------- Geometry Preprocessing ( Zone 0 ) -------------------
Three dimensional problem.
62211324 grid points before partitioning.
190879888 volume elements before partitioning.
2 surface markers.
4104 boundary elements in index 0 (Marker = FARFIELD).
1824836 boundary elements in index 1 (Marker = ORION_SURFACE).
Executing the partitioning functions.
Building the graph adjacency structure.
Calling ParMETIS... graph partitioning complete (4959327 edge cuts).
Distributing ParMETIS coloring.
Rebalancing vertices.
Rebalancing volume element connectivity.
Rebalancing markers and surface elements.
66952290 vertices including ghost points. 
197997438 interior elements including halo cells. 
103171259 tetrahedra.
94500655 prisms.
325524 pyramids.
Establishing MPI communication patterns.
Setting point connectivity.
Renumbering points (Reverse Cuthill McKee Ordering).
Recomputing point connectivity.
Setting element connectivity.
Checking the numerical grid orientation.
All volume elements are correctly orientend.
All surface elements are correctly orientend.
Identifying edges and vertices.
Setting the control volume structure.
Volume of the computational grid: 535693.
Searching for the closest normal neighbors to the surfaces.
Storing a mapping from global to local point index.
Compute the surface curvature.
Max K: 132.896. Mean K: 3.9104. Standard deviation K: 7.49569.
Checking for periodicity.
Computing mesh quality statistics for the dual control volumes.
+--------------------------------------------------------------+
|           Mesh Quality Metric|        Minimum|        Maximum|
+--------------------------------------------------------------+
|    Orthogonality Angle (deg.)|        53.0661|             90|
|     CV Face Area Aspect Ratio|        1.01143|        75298.5|
|           CV Sub-Volume Ratio|        1.00029|        45.0258|
+--------------------------------------------------------------+
Finding max control volume width.
Communicating number of neighbors.
Reference area = 11.531 m^2.
Semi-span length = 2.49999 m.
Wetted area = 57.9072 m^2.
Area projection in the x-plane = 19.6343 m^2, y-plane = 11.531 m^2, z-plane = 11.531 m^2.
Max. coordinate in the x-direction = 2.575 m, y-direction = 2.49999 m, z-direction = 2.49999 m.
Min. coordinate in the x-direction = -0.71 m, y-direction = -2.49999 m, z-direction = -2.5 m.
Computing wall distances.

-------------------- Solver Preprocessing ( Zone 0 ) --------------------
Viscous flow: Computing pressure using the ideal gas law
based on the free-stream temperature and a density computed
from the Reynolds number.
Force coefficients computed using free-stream values.

-- Models:
+------------------------------------------------------------------------------+
|          Viscosity Model|        Conductivity Model|              Fluid Model|
+------------------------------------------------------------------------------+
|               SUTHERLAND|          CONSTANT_PRANDTL|             STANDARD_AIR|
+------------------------------------------------------------------------------+
-- Fluid properties:
+------------------------------------------------------------------------------+
|                  Name|    Dim. value|    Ref. value|      Unit|Non-dim. value|
+------------------------------------------------------------------------------+
|        Ref. Viscosity|     1.716e-05|       613.934|   N.s/m^2|   2.79509e-08|
|      Sutherland Temp.|        273.15|        288.15|         K|      0.947944|
|     Sutherland Const.|         110.4|        288.15|         K|      0.383134|
+------------------------------------------------------------------------------+
|        Prandtl (Lam.)|             -|             -|         -|          0.72|
|       Prandtl (Turb.)|             -|             -|         -|           0.9|
+------------------------------------------------------------------------------+
|          Gas Constant|       287.058|       904.233|  N.m/kg.K|       0.31746|
|      Spec. Heat Ratio|             -|             -|         -|           1.4|
+------------------------------------------------------------------------------+
-- Initial and free-stream conditions:
+------------------------------------------------------------------------------+
|                  Name|    Dim. value|    Ref. value|      Unit|Non-dim. value|
+------------------------------------------------------------------------------+
|       Static Pressure|       99485.6|        313380|        Pa|       0.31746|
|               Density|       1.20274|       1.20274|    kg/m^3|             1|
|           Temperature|        288.15|        288.15|         K|             1|
|          Total Energy|        337067|        260555|   m^2/s^2|       1.29365|
|            Velocity-X|       328.108|       510.446|       m/s|      0.642788|
|            Velocity-Y|             0|       510.446|       m/s|             0|
|            Velocity-Z|       391.024|       510.446|       m/s|      0.766044|
|    Velocity Magnitude|       510.446|       510.446|       m/s|             1|
+------------------------------------------------------------------------------+
|             Viscosity|    1.7893e-05|       613.934|   N.s/m^2|   2.91448e-08|
|          Conductivity|             -|        555139|   W/m^2.K|             -|
|     Turb. Kin. Energy|        977.08|        260555|   m^2/s^2|       0.00375|
|     Spec. Dissipation|   6.56779e+06|       510.446|       1/s|       12866.8|
+------------------------------------------------------------------------------+
|           Mach Number|             -|             -|         -|           1.5|
|       Reynolds Number|             -|             -|         -|   1.71557e+08|
+------------------------------------------------------------------------------+
Initialize Jacobian structure (Navier-Stokes). MG level: 0.
Initialize Jacobian structure (SA model).

------------------- Numerics Preprocessing ( Zone 0 ) -------------------

----------------- Integration Preprocessing ( Zone 0 ) ------------------

------------------- Iteration Preprocessing ( Zone 0 ) ------------------
Euler/Navier-Stokes/RANS fluid iteration.

------------------------------ Begin Solver -----------------------------

Simulation Run using the Single-zone Driver
WARNING: SU2 was not compiled for an AVX-capable architecture. Performance could be better,
         see https://su2code.github.io/docs_v7/Build-SU2-Linux-MacOS/#compiler-optimizations
+--------------------------------------------------------------------------------------------------------------------+
|  Inner_Iter|   Time(sec)|    rms[Rho]|   rms[RhoU]|   rms[RhoV]|   rms[RhoW]|   rms[RhoE]|     rms[nu]|          CD|
+--------------------------------------------------------------------------------------------------------------------+
|           0|  6.0974e+00|   -5.329754|  -16.047252|  -16.490546|  -15.984338|   -5.122629|  -12.310578|    0.997217|
|           1|  6.0434e+00|   -5.482085|   -5.708472|   -6.446587|   -5.585922|   -5.280691|  -12.312308|    1.424553|
|           2|  6.0503e+00|   -5.510697|   -5.767572|   -6.437831|   -5.628278|   -5.304623|  -12.554296|    1.838830|
|           3|  6.1366e+00|   -5.537711|   -5.819976|   -6.390900|   -5.671866|   -5.326027|  -12.702581|    2.239727|
|           4|  6.2597e+00|   -5.568078|   -5.848745|   -6.328084|   -5.719267|   -5.351347|  -12.800549|    2.603408|
|           5|  6.4342e+00|   -5.605032|   -5.838094|   -6.267113|   -5.770156|   -5.385267|  -12.857611|    2.882128|
|           6|  6.6109e+00|   -5.642603|   -5.804810|   -6.223697|   -5.810940|   -5.421640|  -12.884366|    3.009071|
|           7|  6.7456e+00|   -5.657547|   -5.785503|   -6.199820|   -5.818223|   -5.430740|  -12.902575|    2.949251|
|           8|  6.8639e+00|   -5.640838|   -5.791000|   -6.183679|   -5.798118|   -5.401299|  -12.904687|    2.749731|
|           9|  6.9503e+00|   -5.621235|   -5.806746|   -6.163095|   -5.785540|   -5.370799|  -12.896727|    2.513282|
|          10|  7.0310e+00|   -5.618176|   -5.813119|   -6.146369|   -5.794018|   -5.363346|  -12.881191|    2.339905|
|          11|  7.0958e+00|   -5.629811|   -5.808516|   -6.140674|   -5.813124|   -5.376352|  -12.864661|    2.270802|
|          12|  7.1506e+00|   -5.645145|   -5.805934|   -6.146194|   -5.829168|   -5.396035|  -12.853012|    2.289857|
|          13|  7.2087e+00|   -5.655325|   -5.815076|   -6.156933|   -5.836944|   -5.409017|  -12.843546|    2.356190|
|          14|  7.2421e+00|   -5.659478|   -5.831808|   -6.167133|   -5.840787|   -5.413258|  -12.833571|    2.432068|
|          15|  7.2707e+00|   -5.662368|   -5.843246|   -6.173446|   -5.845718|   -5.416139|  -12.823418|    2.494174|
|          16|  7.2960e+00|   -5.666188|   -5.845242|   -6.176763|   -5.851280|   -5.420786|  -12.814663|    2.534935|
|          17|  7.3251e+00|   -5.669646|   -5.846622|   -6.178343|   -5.854219|   -5.425047|  -12.807681|    2.557829|
|          18|  7.3519e+00|   -5.671458|   -5.852272|   -6.179689|   -5.855027|   -5.427113|  -12.801271|    2.570622|
|          19|  7.3718e+00|   -5.672277|   -5.856751|   -6.180407|   -5.856278|   -5.428009|  -12.795403|    2.579831|
|          20|  7.3923e+00|   -5.672745|   -5.855868|   -6.180488|   -5.858716|   -5.428592|  -12.790274|    2.588418|
|          21|  7.4091e+00|   -5.673454|   -5.854432|   -6.180072|   -5.860877|   -5.429375|  -12.785188|    2.596449|
|          22|  7.4216e+00|   -5.673017|   -5.855521|   -6.179195|   -5.861226|   -5.428589|  -12.780896|    2.602920|
|          23|  7.4363e+00|   -5.672442|   -5.857236|   -6.178192|   -5.860864|   -5.427757|  -12.776475|    2.607215|
|          24|  7.4514e+00|   -5.671776|   -5.855505|   -6.176976|   -5.860989|   -5.426896|  -12.772988|    2.609589|
|          25|  7.4667e+00|   -5.671263|   -5.852940|   -6.175930|   -5.861663|   -5.426186|  -12.769115|    2.610870|
|          26|  7.4785e+00|   -5.670272|   -5.852248|   -6.174758|   -5.861865|   -5.424755|  -12.766119|    2.611893|
|          27|  7.4891e+00|   -5.669315|   -5.852918|   -6.173350|   -5.861264|   -5.423452|  -12.762996|    2.613123|
|          28|  7.4980e+00|   -5.668516|   -5.851588|   -6.171940|   -5.860335|   -5.422526|  -12.760161|    2.614610|
|          29|  7.5088e+00|   -5.667747|   -5.848651|   -6.170788|   -5.859574|   -5.421647|  -12.757515|    2.616161|
|          30|  7.5171e+00|   -5.666672|   -5.846866|   -6.169780|   -5.858839|   -5.420232|  -12.754992|    2.617569|
|          31|  7.5235e+00|   -5.665379|   -5.846431|   -6.168640|   -5.857791|   -5.418507|  -12.752891|    2.618737|
|          32|  7.5306e+00|   -5.664355|   -5.845391|   -6.167281|   -5.855916|   -5.417256|  -12.750198|    2.619690|
|          33|  7.5376e+00|   -5.663118|   -5.841975|   -6.165836|   -5.853051|   -5.415866|  -12.748047|    2.620514|
|          34|  7.5449e+00|   -5.661771|   -5.838361|   -6.164593|   -5.849396|   -5.414214|  -12.744421|    2.621289|
|          35|  7.5500e+00|   -5.659356|   -5.834826|   -6.162988|   -5.844456|   -5.411007|  -12.741758|    2.622049|
|          36|  7.5577e+00|   -5.656724|   -5.830848|   -6.160942|   -5.837570|   -5.407475|  -12.736797|    2.622787|
|          37|  7.5632e+00|   -5.653194|   -5.823527|   -6.158033|   -5.827422|   -5.402771|  -12.732130|    2.623478|
|          38|  7.5750e+00|   -5.648695|   -5.813188|   -6.154449|   -5.813371|   -5.396806|  -12.724099|    2.624097|
|          39|  7.5819e+00|   -5.642176|   -5.800205|   -6.149585|   -5.795011|   -5.388005|  -12.715027|    2.624637|
|          40|  7.5862e+00|   -5.633525|   -5.784444|   -6.143140|   -5.772149|   -5.376424|  -12.702946|    2.625104|
|          41|  7.5915e+00|   -5.622567|   -5.764420|   -6.134384|   -5.744579|   -5.362045|  -12.688493|    2.625509|
|          42|  7.5968e+00|   -5.609063|   -5.739719|   -6.123194|   -5.712577|   -5.344851|  -12.671294|    2.625866|
|          43|  7.6030e+00|   -5.592790|   -5.711572|   -6.109320|   -5.677176|   -5.324750|  -12.650861|    2.626180|
|          44|  7.6074e+00|   -5.573508|   -5.680950|   -6.092638|   -5.639738|   -5.301668|  -12.628570|    2.626456|
|          45|  7.6122e+00|   -5.551917|   -5.648714|   -6.073265|   -5.601525|   -5.276718|  -12.604517|    2.626691|
|          46|  7.6169e+00|   -5.528530|   -5.615239|   -6.051463|   -5.563514|   -5.250674|  -12.579651|    2.626886|
|          47|  7.6222e+00|   -5.504045|   -5.581719|   -6.027897|   -5.526497|   -5.224388|  -12.554217|    2.627039|
|          48|  7.6284e+00|   -5.478841|   -5.549002|   -6.003068|   -5.491194|   -5.198239|  -12.529054|    2.627153|
|          49|  7.6325e+00|   -5.453684|   -5.517885|   -5.977724|   -5.458186|   -5.172956|  -12.504535|    2.627231|
|          50|  7.6363e+00|   -5.429064|   -5.488550|   -5.952328|   -5.427777|   -5.148978|  -12.481530|    2.627278|
|          51|  7.6403e+00|   -5.405620|   -5.461364|   -5.927526|   -5.400128|   -5.126875|  -12.459766|    2.627295|
|          52|  7.6454e+00|   -5.383502|   -5.436467|   -5.903592|   -5.375234|   -5.106654|  -12.439916|    2.627286|
|          53|  7.6494e+00|   -5.363030|   -5.414066|   -5.880949|   -5.353131|   -5.088533|  -12.421711|    2.627249|
|          54|  7.6530e+00|   -5.344287|   -5.394106|   -5.859713|   -5.333760|   -5.072455|  -12.405497|    2.627186|
|          55|  7.6564e+00|   -5.327419|   -5.376529|   -5.840069|   -5.317023|   -5.058488|  -12.391215|    2.627098|
|          56|  7.6595e+00|   -5.312439|   -5.361225|   -5.822010|   -5.302754|   -5.046561|  -12.378726|    2.626984|
|          57|  7.6619e+00|   -5.299301|   -5.348110|   -5.805576|   -5.290765|   -5.036534|  -12.368062|    2.626846|
|          58|  7.6661e+00|   -5.287932|   -5.337024|   -5.790688|   -5.280885|   -5.028279|  -12.359044|    2.626684|
|          59|  7.6689e+00|   -5.278255|   -5.327826|   -5.777320|   -5.272952|   -5.021646|  -12.351533|    2.626500|
|          60|  7.6721e+00|   -5.270123|   -5.320302|   -5.765323|   -5.266773|   -5.016447|  -12.345588|    2.626294|
|          61|  7.6743e+00|   -5.263492|   -5.314355|   -5.754644|   -5.262173|   -5.012614|  -12.340758|    2.626066|
|          62|  7.6764e+00|   -5.258145|   -5.309764|   -5.745119|   -5.258947|   -5.009879|  -12.337275|    2.625817|
|          63|  7.6782e+00|   -5.254037|   -5.306423|   -5.736691|   -5.256943|   -5.008213|  -12.334634|    2.625546|
|          64|  7.6793e+00|   -5.250950|   -5.304105|   -5.729199|   -5.256008|   -5.007347|  -12.332996|    2.625254|
|          65|  7.6814e+00|   -5.248820|   -5.302727|   -5.722569|   -5.256003|   -5.007242|  -12.332038|    2.624940|
|          66|  7.6837e+00|   -5.247489|   -5.302119|   -5.716668|   -5.256793|   -5.007721|  -12.331745|    2.624606|
|          67|  7.6855e+00|   -5.246870|   -5.302184|   -5.711423|   -5.258242|   -5.008715|  -12.331945|    2.624252|
|          68|  7.6866e+00|   -5.246834|   -5.302754|   -5.706726|   -5.260245|   -5.010103|  -12.332553|    2.623877|
|          69|  7.6882e+00|   -5.247285|   -5.303742|   -5.702507|   -5.262711|   -5.011794|  -12.333419|    2.623482|
|          70|  7.6892e+00|   -5.248112|   -5.305051|   -5.698680|   -5.265554|   -5.013685|  -12.334532|    2.623066|
|          71|  7.6846e+00|   -5.249255|   -5.306611|   -5.695193|   -5.268697|   -5.015739|  -12.335702|    2.622630|
|          72|  7.6797e+00|   -5.250616|   -5.308322|   -5.691968|   -5.272053|   -5.017868|  -12.336953|    2.622173|
|          73|  7.6757e+00|   -5.252136|   -5.310098|   -5.688970|   -5.275562|   -5.020044|  -12.338144|    2.621696|
|          74|  7.6706e+00|   -5.253726|   -5.311896|   -5.686135|   -5.279174|   -5.022180|  -12.339175|    2.621198|
|          75|  7.6669e+00|   -5.255300|   -5.313652|   -5.683432|   -5.282832|   -5.024203|  -12.340084|    2.620679|
|          76|  7.6618e+00|   -5.256824|   -5.315334|   -5.680822|   -5.286495|   -5.026115|  -12.340651|    2.620140|
|          77|  7.6577e+00|   -5.258200|   -5.316836|   -5.678262|   -5.290098|   -5.027818|  -12.340988|    2.619580|
|          78|  7.6536e+00|   -5.259395|   -5.318127|   -5.675745|   -5.293604|   -5.029326|  -12.340871|    2.618999|
|          79|  7.6496e+00|   -5.260300|   -5.319146|   -5.673218|   -5.296971|   -5.030511|  -12.340314|    2.618397|
|          80|  7.6457e+00|   -5.260873|   -5.319873|   -5.670690|   -5.300160|   -5.031362|  -12.339275|    2.617773|
|          81|  7.6425e+00|   -5.261061|   -5.320254|   -5.668116|   -5.303133|   -5.031842|  -12.337669|    2.617129|
|          82|  7.6389e+00|   -5.260810|   -5.320236|   -5.665498|   -5.305836|   -5.031909|  -12.335521|    2.616463|
|          83|  7.6359e+00|   -5.260070|   -5.319793|   -5.662812|   -5.308223|   -5.031538|  -12.332732|    2.615776|
|          84|  7.6318e+00|   -5.258779|   -5.318904|   -5.660048|   -5.310259|   -5.030657|  -12.329293|    2.615068|
|          85|  7.6223e+00|   -5.256892|   -5.317560|   -5.657203|   -5.311891|   -5.029235|  -12.325231|    2.614337|
|          86|  7.6131e+00|   -5.254396|   -5.315737|   -5.654254|   -5.313084|   -5.027271|  -12.320487|    2.613584|
|          87|  7.6055e+00|   -5.251257|   -5.313427|   -5.651211|   -5.313776|   -5.024726|  -12.315120|    2.612809|
|          88|  7.5986e+00|   -5.247461|   -5.310636|   -5.648054|   -5.313920|   -5.021597|  -12.309127|    2.612010|
|          89|  7.5905e+00|   -5.243002|   -5.307403|   -5.644791|   -5.313479|   -5.017864|  -12.302508|    2.611189|
|          90|  7.5826e+00|   -5.237877|   -5.303767|   -5.641414|   -5.312398|   -5.013514|  -12.295381|    2.610343|
|          91|  7.5748e+00|   -5.232136|   -5.299778|   -5.637919|   -5.310655|   -5.008606|  -12.287721|    2.609472|
|          92|  7.5685e+00|   -5.225791|   -5.295503|   -5.634302|   -5.308194|   -5.003135|  -12.279621|    2.608576|
|          93|  7.5617e+00|   -5.218886|   -5.291014|   -5.630552|   -5.304983|   -4.997144|  -12.271112|    2.607653|
|          94|  7.5556e+00|   -5.211462|   -5.286399|   -5.626664|   -5.301005|   -4.990657|  -12.262215|    2.606701|
|          95|  7.5492e+00|   -5.203559|   -5.281746|   -5.622628|   -5.296237|   -4.983702|  -12.253047|    2.605720|
|          96|  7.5426e+00|   -5.195246|   -5.277131|   -5.618426|   -5.290695|   -4.976351|  -12.243576|    2.604707|
|          97|  7.5364e+00|   -5.186563|   -5.272618|   -5.614052|   -5.284384|   -4.968624|  -12.233874|    2.603660|
|          98|  7.5303e+00|   -5.177559|   -5.268261|   -5.609490|   -5.277329|   -4.960569|  -12.223991|    2.602578|
|          99|  7.5246e+00|   -5.168267|   -5.264096|   -5.604727|   -5.269583|   -4.952212|  -12.213907|    2.601457|
|         100|  7.5140e+00|   -5.158710|   -5.260126|   -5.599748|   -5.261195|   -4.943552|  -12.203679|    2.600295|
|         101|  7.4830e+00|   -5.148922|   -5.256335|   -5.594531|   -5.252244|   -4.934628|  -12.211851|    2.600262|
|         102|  7.4532e+00|   -5.148372|   -5.256077|   -5.594258|   -5.251805|   -4.934114|  -12.211055|    2.600224|
|         103|  7.4240e+00|   -5.147718|   -5.255767|   -5.593931|   -5.251281|   -4.933505|  -12.210108|    2.600177|
|         104|  7.3996e+00|   -5.146941|   -5.255395|   -5.593539|   -5.250655|   -4.932784|  -12.208982|    2.600120|
|         105|  7.3754e+00|   -5.146022|   -5.254949|   -5.593068|   -5.249908|   -4.931934|  -12.207647|    2.600051|
|         106|  7.3516e+00|   -5.144938|   -5.254412|   -5.592504|   -5.249018|   -4.930935|  -12.206069|    2.599968|
|         107|  7.3279e+00|   -5.143661|   -5.253767|   -5.591828|   -5.247959|   -4.929767|  -12.204209|    2.599867|
|         108|  7.3043e+00|   -5.142166|   -5.252992|   -5.591019|   -5.246700|   -4.928407|  -12.202024|    2.599743|
|         109|  7.2812e+00|   -5.140423|   -5.252060|   -5.590051|   -5.245206|   -4.926835|  -12.199469|    2.599593|
|         110|  7.2624e+00|   -5.138400|   -5.250939|   -5.588894|   -5.243435|   -4.925028|  -12.196494|    2.599408|
|         111|  7.2441e+00|   -5.136063|   -5.249597|   -5.587515|   -5.241340|   -4.922961|  -12.193046|    2.599180|
|         112|  7.2256e+00|   -5.133369|   -5.247995|   -5.585873|   -5.238864|   -4.920602|  -12.189054|    2.598897|
|         113|  7.2081e+00|   -5.130261|   -5.246103|   -5.583924|   -5.235936|   -4.917891|  -12.184423|    2.598546|
|         114|  7.1945e+00|   -5.126646|   -5.243899|   -5.581616|   -5.232468|   -4.914726|  -12.179013|    2.598107|
|         115|  7.1813e+00|   -5.122380|   -5.241389|   -5.578893|   -5.228340|   -4.910925|  -12.172642|    2.597558|
|         116|  7.1681e+00|   -5.117257|   -5.238613|   -5.575688|   -5.223395|   -4.906218|  -12.165137|    2.596873|
|         117|  7.1593e+00|   -5.111028|   -5.235646|   -5.571924|   -5.217433|   -4.900291|  -12.156386|    2.596021|
|         118|  7.1507e+00|   -5.103461|   -5.232559|   -5.567522|   -5.210213|   -4.892859|  -12.146346|    2.594965|
|         119|  7.1446e+00|   -5.094427|   -5.229393|   -5.562423|   -5.201484|   -4.883777|  -12.135075|    2.593658|
|         120|  7.1391e+00|   -5.083932|   -5.226204|   -5.556575|   -5.191110|   -4.873105|  -12.123795|    2.592139|
|         121|  7.1341e+00|   -5.072543|   -5.223020|   -5.550101|   -5.179645|   -4.861533|  -12.114000|    2.590581|
|         122|  7.1290e+00|   -5.061281|   -5.219575|   -5.543331|   -5.168318|   -4.850187|  -12.104170|    2.588967|
|         123|  7.1237e+00|   -5.050340|   -5.215603|   -5.536181|   -5.157400|   -4.839302|  -12.094291|    2.587283|
|         124|  7.1186e+00|   -5.039774|   -5.211040|   -5.528647|   -5.147002|   -4.828948|  -12.084319|    2.585521|
|         125|  7.1137e+00|   -5.029492|   -5.206005|   -5.520751|   -5.137086|   -4.819003|  -12.074077|    2.583672|
|         126|  7.1083e+00|   -5.019263|   -5.200627|   -5.512525|   -5.127504|   -4.809130|  -12.063496|    2.581732|
|         127|  7.1035e+00|   -5.008939|   -5.195060|   -5.504054|   -5.118124|   -4.799120|  -12.052744|    2.579698|
|         128|  7.0989e+00|   -4.998507|   -5.189413|   -5.495421|   -5.108866|   -4.788972|  -12.041972|    2.577565|
|         129|  7.0940e+00|   -4.987958|   -5.183670|   -5.486660|   -5.099680|   -4.778670|  -12.031253|    2.575332|
|         130|  7.0889e+00|   -4.977315|   -5.177737|   -5.477763|   -5.090581|   -4.768212|  -12.020714|    2.572994|
|         131|  7.0838e+00|   -4.966654|   -5.171507|   -5.468701|   -5.081629|   -4.757686|  -12.010389|    2.570550|
|         132|  7.0788e+00|   -4.956031|   -5.164889|   -5.459450|   -5.072879|   -4.747152|  -12.000206|    2.567999|
|         133|  7.0739e+00|   -4.945497|   -5.157876|   -5.450038|   -5.064388|   -4.736670|  -11.990162|    2.565342|
|         134|  7.0690e+00|   -4.935068|   -5.150509|   -5.440498|   -5.056148|   -4.726268|  -11.980223|    2.562580|
|         135|  7.0643e+00|   -4.924735|   -5.142847|   -5.430858|   -5.048144|   -4.715939|  -11.970302|    2.559716|
|         136|  7.0599e+00|   -4.914428|   -5.134900|   -5.421103|   -5.040316|   -4.705583|  -11.960405|    2.556752|
|         137|  7.0555e+00|   -4.904152|   -5.126686|   -5.411261|   -5.032666|   -4.695206|  -11.950575|    2.553692|
|         138|  7.0513e+00|   -4.893908|   -5.118201|   -5.401346|   -5.025191|   -4.684816|  -11.940832|    2.550537|
|         139|  7.0477e+00|   -4.883709|   -5.109451|   -5.391366|   -5.017906|   -4.674433|  -11.931132|    2.547286|
|         140|  7.0434e+00|   -4.873574|   -5.100461|   -5.381305|   -5.010825|   -4.664087|  -11.921440|    2.543935|
|         141|  7.0396e+00|   -4.863517|   -5.091261|   -5.371154|   -5.003944|   -4.653801|  -11.911782|    2.540479|
|         142|  7.0358e+00|   -4.853538|   -5.081881|   -5.360898|   -4.997240|   -4.643561|  -11.902181|    2.536908|
|         143|  7.0319e+00|   -4.843667|   -5.072396|   -5.350549|   -4.990723|   -4.633401|  -11.892660|    2.533209|
|         144|  7.0285e+00|   -4.833913|   -5.062869|   -5.340137|   -4.984401|   -4.623349|  -11.883230|    2.529368|
|         145|  7.0253e+00|   -4.824277|   -5.053338|   -5.329727|   -4.978273|   -4.613412|  -11.873888|    2.525370|
|         146|  7.0220e+00|   -4.814752|   -5.043796|   -5.319402|   -4.972327|   -4.603585|  -11.864685|    2.521200|
|         147|  7.0188e+00|   -4.805315|   -5.034198|   -5.309217|   -4.966532|   -4.593839|  -11.855677|    2.516845|
|         148|  7.0159e+00|   -4.795973|   -5.024525|   -5.299214|   -4.960887|   -4.584175|  -11.846780|    2.512294|
|         149|  7.0127e+00|   -4.786735|   -5.014806|   -5.289386|   -4.955394|   -4.574593|  -11.837990|    2.507542|
|         150|  7.0094e+00|   -4.777630|   -5.005088|   -5.279704|   -4.950070|   -4.565114|  -11.829338|    2.502589|
+-----------------------------------------------------------------------+
|        File Writing Summary       |              Filename             |
+-----------------------------------------------------------------------+
|SU2 binary restart                 |restart_flow.dat                   |
|Paraview                           |flow.vtu                           |
|Paraview surface                   |surface_flow.vtu                   |
+-----------------------------------------------------------------------+
+--------------------------------------------------------------------------------------------------------------------+
|  Inner_Iter|   Time(sec)|    rms[Rho]|   rms[RhoU]|   rms[RhoV]|   rms[RhoW]|   rms[RhoE]|     rms[nu]|          CD|
+--------------------------------------------------------------------------------------------------------------------+
|         151|  7.1383e+00|   -4.768731|   -4.995461|   -5.270178|   -4.944960|   -4.555823|  -11.847512|    2.502429|
|         152|  7.1256e+00|   -4.768121|   -4.995041|   -5.269701|   -4.944531|   -4.555265|  -11.846435|    2.502238|
|         153|  7.1090e+00|   -4.767401|   -4.994531|   -5.269129|   -4.944026|   -4.554607|  -11.845161|    2.502007|
|         154|  7.0952e+00|   -4.766551|   -4.993909|   -5.268444|   -4.943434|   -4.553834|  -11.843659|    2.501730|
|         155|  7.0807e+00|   -4.765554|   -4.993148|   -5.267623|   -4.942744|   -4.552930|  -11.841893|    2.501395|
|         156|  7.0666e+00|   -4.764388|   -4.992214|   -5.266639|   -4.941945|   -4.551878|  -11.839825|    2.500991|
|         157|  7.0521e+00|   -4.763034|   -4.991064|   -5.265462|   -4.941027|   -4.550663|  -11.837419|    2.500503|
|         158|  7.0381e+00|   -4.761472|   -4.989644|   -5.264054|   -4.939982|   -4.549270|  -11.834635|    2.499914|
|         159|  7.0244e+00|   -4.759685|   -4.987886|   -5.262373|   -4.938808|   -4.547689|  -11.831439|    2.499200|
|         160|  7.0132e+00|   -4.757661|   -4.985705|   -5.260371|   -4.937508|   -4.545917|  -11.827804|    2.498334|
|         161|  7.0020e+00|   -4.755394|   -4.982997|   -5.257991|   -4.936093|   -4.543950|  -11.823711|    2.497283|
|         162|  6.9910e+00|   -4.752882|   -4.979642|   -5.255172|   -4.934582|   -4.541791|  -11.819145|    2.496003|
|         163|  6.9803e+00|   -4.750127|   -4.975513|   -5.251851|   -4.932998|   -4.539436|  -11.814102|    2.494443|
|         164|  6.9728e+00|   -4.747125|   -4.970500|   -5.247974|   -4.931357|   -4.536857|  -11.808573|    2.492538|
|         165|  6.9651e+00|   -4.743841|   -4.964560|   -5.243500|   -4.929651|   -4.533975|  -11.802513|    2.490207|
|         166|  6.9574e+00|   -4.740178|   -4.957771|   -5.238409|   -4.927805|   -4.530596|  -11.795844|    2.487352|
|         167|  6.9514e+00|   -4.735917|   -4.950388|   -5.232703|   -4.925625|   -4.526340|  -11.788451|    2.483856|
|         168|  6.9458e+00|   -4.730707|   -4.942878|   -5.226434|   -4.922780|   -4.520639|  -11.780273|    2.479579|
|         169|  6.9431e+00|   -4.724135|   -4.935841|   -5.219650|   -4.918865|   -4.512862|  -11.771444|    2.474361|
|         170|  6.9401e+00|   -4.715963|   -4.929803|   -5.212371|   -4.913620|   -4.502703|  -11.763657|    2.468413|
|         171|  6.9375e+00|   -4.706750|   -4.925065|   -5.204889|   -4.907439|   -4.491180|  -11.758675|    2.462432|
|         172|  6.9345e+00|   -4.697934|   -4.921088|   -5.197698|   -4.901489|   -4.480583|  -11.754198|    2.456439|
|         173|  6.9314e+00|   -4.690408|   -4.916507|   -5.190668|   -4.896678|   -4.472025|  -11.750230|    2.450454|
|         174|  6.9291e+00|   -4.684491|   -4.910769|   -5.183800|   -4.893332|   -4.465794|  -11.746508|    2.444495|
|         175|  6.9269e+00|   -4.679962|   -4.904153|   -5.177144|   -4.891248|   -4.461468|  -11.742637|    2.438574|
|         176|  6.9243e+00|   -4.676260|   -4.897451|   -5.170751|   -4.889888|   -4.458233|  -11.738381|    2.432705|
|         177|  6.9217e+00|   -4.672839|   -4.891584|   -5.164686|   -4.888692|   -4.455348|  -11.733720|    2.426895|
|         178|  6.9190e+00|   -4.669265|   -4.886974|   -5.158936|   -4.887231|   -4.452205|  -11.728895|    2.421149|
|         179|  6.9163e+00|   -4.665421|   -4.883527|   -5.153483|   -4.885358|   -4.448628|  -11.724254|    2.415469|
|         180|  6.9140e+00|   -4.661463|   -4.880815|   -5.148278|   -4.883159|   -4.444811|  -11.720042|    2.409854|
|         181|  6.9115e+00|   -4.657614|   -4.878420|   -5.143250|   -4.880795|   -4.441079|  -11.716470|    2.404301|
|         182|  6.9093e+00|   -4.654056|   -4.876131|   -5.138332|   -4.878421|   -4.437693|  -11.713378|    2.398808|
|         183|  6.9071e+00|   -4.650850|   -4.873903|   -5.133476|   -4.876120|   -4.434726|  -11.710542|    2.393371|
|         184|  6.9047e+00|   -4.647935|   -4.871734|   -5.128626|   -4.873910|   -4.432074|  -11.707882|    2.387987|
|         185|  6.9019e+00|   -4.645257|   -4.869766|   -5.123827|   -4.871770|   -4.429649|  -11.705345|    2.382653|
|         186|  6.8995e+00|   -4.642787|   -4.868241|   -5.119181|   -4.869676|   -4.427468|  -11.702948|    2.377369|
|         187|  6.8971e+00|   -4.640465|   -4.867234|   -5.114724|   -4.867566|   -4.425472|  -11.700662|    2.372134|
|         188|  6.8949e+00|   -4.638282|   -4.866662|   -5.110501|   -4.865415|   -4.423642|  -11.698465|    2.366947|
|         189|  6.8921e+00|   -4.636222|   -4.866378|   -5.106518|   -4.863206|   -4.421962|  -11.696419|    2.361807|
|         190|  6.8897e+00|   -4.634292|   -4.866235|   -5.102733|   -4.860959|   -4.420411|  -11.694505|    2.356716|
|         191|  6.8876e+00|   -4.632490|   -4.866157|   -5.099120|   -4.858716|   -4.418981|  -11.692736|    2.351671|
|         192|  6.8854e+00|   -4.630840|   -4.866140|   -5.095657|   -4.856533|   -4.417702|  -11.691097|    2.346672|
|         193|  6.8828e+00|   -4.629390|   -4.866208|   -5.092339|   -4.854470|   -4.416621|  -11.689560|    2.341717|
|         194|  6.8807e+00|   -4.628168|   -4.866460|   -5.089173|   -4.852539|   -4.415801|  -11.688117|    2.336804|
|         195|  6.8787e+00|   -4.627139|   -4.866959|   -5.086186|   -4.850700|   -4.415232|  -11.686760|    2.331930|
|         196|  6.8768e+00|   -4.626200|   -4.867665|   -5.083336|   -4.848872|   -4.414780|  -11.685430|    2.327090|
|         197|  6.8747e+00|   -4.625269|   -4.868533|   -5.080599|   -4.846990|   -4.414342|  -11.683977|    2.322279|
|         198|  6.8726e+00|   -4.624297|   -4.869511|   -5.077970|   -4.845042|   -4.413863|  -11.682461|    2.317492|
|         199|  6.8708e+00|   -4.623289|   -4.870469|   -5.075433|   -4.843066|   -4.413330|  -11.681029|    2.312722|
|         200|  6.8690e+00|   -4.622280|   -4.871302|   -5.072907|   -4.841107|   -4.412765|  -11.679742|    2.307961|
|         201|  6.8673e+00|   -4.621331|   -4.872052|   -5.070397|   -4.839217|   -4.412247|  -11.678639|    2.303201|
|         202|  6.8659e+00|   -4.620490|   -4.872822|   -5.067951|   -4.837424|   -4.411839|  -11.677657|    2.298434|
|         203|  6.8643e+00|   -4.619793|   -4.873719|   -5.065674|   -4.835710|   -4.411582|  -11.676755|    2.293650|
|         204|  6.8625e+00|   -4.619218|   -4.874699|   -5.063599|   -4.834044|   -4.411440|  -11.675948|    2.288840|
|         205|  6.8610e+00|   -4.618775|   -4.875672|   -5.061767|   -4.832442|   -4.411414|  -11.675216|    2.283993|
|         206|  6.8591e+00|   -4.618466|   -4.876604|   -5.060140|   -4.830929|   -4.411512|  -11.674602|    2.279101|
|         207|  6.8567e+00|   -4.618292|   -4.877569|   -5.058671|   -4.829521|   -4.411753|  -11.674044|    2.274154|
|         208|  6.8552e+00|   -4.618188|   -4.878581|   -5.057326|   -4.828177|   -4.412063|  -11.673459|    2.269144|
|         209|  6.8538e+00|   -4.618107|   -4.879604|   -5.056062|   -4.826850|   -4.412372|  -11.672789|    2.264062|
|         210|  6.8522e+00|   -4.618037|   -4.880599|   -5.054862|   -4.825483|   -4.412655|  -11.672045|    2.258901|
|         211|  6.8509e+00|   -4.617979|   -4.881551|   -5.053691|   -4.824013|   -4.412921|  -11.671280|    2.253654|
|         212|  6.8496e+00|   -4.617912|   -4.882340|   -5.052479|   -4.822379|   -4.413138|  -11.670471|    2.248313|
|         213|  6.8475e+00|   -4.617827|   -4.882826|   -5.051163|   -4.820538|   -4.413286|  -11.669608|    2.242872|
|         214|  6.8456e+00|   -4.617714|   -4.882894|   -5.049748|   -4.818464|   -4.413353|  -11.668783|    2.237324|
|         215|  6.8444e+00|   -4.617557|   -4.882521|   -5.048229|   -4.816132|   -4.413315|  -11.668017|    2.231665|
|         216|  6.8431e+00|   -4.617341|   -4.881779|   -5.046593|   -4.813507|   -4.413145|  -11.667253|    2.225886|
|         217|  6.8416e+00|   -4.617047|   -4.880741|   -5.044802|   -4.810540|   -4.412808|  -11.666405|    2.219984|
|         218|  6.8400e+00|   -4.616687|   -4.879438|   -5.042804|   -4.807192|   -4.412305|  -11.665482|    2.213952|
|         219|  6.8382e+00|   -4.616274|   -4.877799|   -5.040566|   -4.803430|   -4.411638|  -11.664512|    2.207785|
|         220|  6.8368e+00|   -4.615824|   -4.875657|   -5.038051|   -4.799215|   -4.410810|  -11.663508|    2.201479|
|         221|  6.8354e+00|   -4.615362|   -4.872890|   -5.035266|   -4.794504|   -4.409861|  -11.662465|    2.195030|
|         222|  6.8337e+00|   -4.614876|   -4.869404|   -5.032221|   -4.789236|   -4.408788|  -11.661335|    2.188432|
|         223|  6.8319e+00|   -4.614311|   -4.865103|   -5.028890|   -4.783332|   -4.407514|  -11.660057|    2.181684|
|         224|  6.8303e+00|   -4.613594|   -4.859962|   -5.025221|   -4.776734|   -4.405960|  -11.658540|    2.174782|
|         225|  6.8290e+00|   -4.612646|   -4.854006|   -5.021140|   -4.769402|   -4.404054|  -11.656748|    2.167724|
|         226|  6.8275e+00|   -4.611413|   -4.847272|   -5.016579|   -4.761330|   -4.401748|  -11.654686|    2.160508|
|         227|  6.8259e+00|   -4.609876|   -4.839779|   -5.011495|   -4.752536|   -4.399045|  -11.652347|    2.153135|
|         228|  6.8245e+00|   -4.608024|   -4.831492|   -5.005857|   -4.743055|   -4.395954|  -11.649709|    2.145602|
|         229|  6.8229e+00|   -4.605849|   -4.822367|   -4.999661|   -4.732945|   -4.392479|  -11.646742|    2.137912|
|         230|  6.8213e+00|   -4.603341|   -4.812442|   -4.992936|   -4.722274|   -4.388649|  -11.643373|    2.130065|
|         231|  6.8198e+00|   -4.600478|   -4.801798|   -4.985737|   -4.711110|   -4.384479|  -11.639521|    2.122063|
|         232|  6.8185e+00|   -4.597241|   -4.790563|   -4.978134|   -4.699534|   -4.379993|  -11.635135|    2.113908|
|         233|  6.8171e+00|   -4.593590|   -4.778865|   -4.970183|   -4.687622|   -4.375182|  -11.630161|    2.105603|
|         234|  6.8160e+00|   -4.589479|   -4.766803|   -4.961939|   -4.675451|   -4.370043|  -11.624570|    2.097152|
|         235|  6.8150e+00|   -4.584886|   -4.754456|   -4.953454|   -4.663100|   -4.364590|  -11.618357|    2.088557|
|         236|  6.8138e+00|   -4.579814|   -4.741889|   -4.944785|   -4.650645|   -4.358853|  -11.611511|    2.079824|
|         237|  6.8129e+00|   -4.574278|   -4.729170|   -4.936005|   -4.638153|   -4.352878|  -11.604034|    2.070956|
|         238|  6.8114e+00|   -4.568294|   -4.716386|   -4.927174|   -4.625679|   -4.346705|  -11.595916|    2.061957|
|         239|  6.8100e+00|   -4.561858|   -4.703612|   -4.918345|   -4.613265|   -4.340334|  -11.587154|    2.052832|
|         240|  6.8086e+00|   -4.554955|   -4.690923|   -4.909563|   -4.600952|   -4.333749|  -11.577734|    2.043585|
|         241|  6.8075e+00|   -4.547595|   -4.678385|   -4.900863|   -4.588782|   -4.326950|  -11.567711|    2.034221|
|         242|  6.8061e+00|   -4.539800|   -4.666040|   -4.892287|   -4.576800|   -4.319942|  -11.557139|    2.024745|
|         243|  6.8047e+00|   -4.531616|   -4.653920|   -4.883862|   -4.565053|   -4.312750|  -11.546090|    2.015160|
|         244|  6.8038e+00|   -4.523105|   -4.642055|   -4.875618|   -4.553577|   -4.305410|  -11.534661|    2.005471|
|         245|  6.8025e+00|   -4.514321|   -4.630474|   -4.867580|   -4.542399|   -4.297950|  -11.522927|    1.995683|
|         246|  6.7927e+00|   -4.505313|   -4.619200|   -4.859767|   -4.531534|   -4.290390|  -11.550382|    1.995372|
|         247|  6.7831e+00|   -4.504882|   -4.618869|   -4.859545|   -4.531144|   -4.290097|  -11.549407|    1.994997|
|         248|  6.7735e+00|   -4.504373|   -4.618471|   -4.859277|   -4.530681|   -4.289752|  -11.548243|    1.994547|
|         249|  6.7655e+00|   -4.503772|   -4.617994|   -4.858952|   -4.530131|   -4.289352|  -11.546854|    1.994005|
|         250|  6.7577e+00|   -4.503066|   -4.617420|   -4.858558|   -4.529479|   -4.288887|  -11.545200|    1.993354|
|         251|  6.7500e+00|   -4.502240|   -4.616731|   -4.858079|   -4.528710|   -4.288353|  -11.543234|    1.992571|
|         252|  6.7423e+00|   -4.501278|   -4.615902|   -4.857497|   -4.527802|   -4.287744|  -11.540901|    1.991627|
|         253|  6.7346e+00|   -4.500165|   -4.614904|   -4.856786|   -4.526736|   -4.287056|  -11.538140|    1.990490|
|         254|  6.7273e+00|   -4.498884|   -4.613704|   -4.855916|   -4.525486|   -4.286289|  -11.534880|    1.989119|
|         255|  6.7215e+00|   -4.497419|   -4.612257|   -4.854852|   -4.524025|   -4.285442|  -11.531041|    1.987464|
|         256|  6.7158e+00|   -4.495757|   -4.610513|   -4.853547|   -4.522322|   -4.284517|  -11.526534|    1.985465|
|         257|  6.7098e+00|   -4.493876|   -4.608406|   -4.851946|   -4.520336|   -4.283510|  -11.521256|    1.983047|
|         258|  6.7043e+00|   -4.491748|   -4.605860|   -4.849986|   -4.518016|   -4.282403|  -11.515086|    1.980120|
|         259|  6.7001e+00|   -4.489322|   -4.602783|   -4.847594|   -4.515290|   -4.281144|  -11.507886|    1.976576|
|         260|  6.6963e+00|   -4.486494|   -4.599061|   -4.844694|   -4.512050|   -4.279607|  -11.499481|    1.972283|
|         261|  6.6925e+00|   -4.483083|   -4.594568|   -4.841217|   -4.508136|   -4.277559|  -11.489681|    1.967083|
|         262|  6.6903e+00|   -4.478790|   -4.589153|   -4.837116|   -4.503315|   -4.274598|  -11.478295|    1.960789|
|         263|  6.6884e+00|   -4.473183|   -4.582650|   -4.832379|   -4.497279|   -4.270141|  -11.465199|    1.953179|
|         264|  6.6877e+00|   -4.465758|   -4.574884|   -4.827030|   -4.489694|   -4.263506|  -11.450407|    1.943987|
|         265|  6.6869e+00|   -4.456100|   -4.565696|   -4.821114|   -4.480311|   -4.254133|  -11.436589|    1.933585|
|         266|  6.6861e+00|   -4.444789|   -4.555663|   -4.815029|   -4.469785|   -4.242678|  -11.427128|    1.923168|
|         267|  6.6853e+00|   -4.433637|   -4.546158|   -4.809406|   -4.459777|   -4.231352|  -11.418117|    1.912733|
|         268|  6.6845e+00|   -4.423299|   -4.537276|   -4.803969|   -4.450712|   -4.221033|  -11.409460|    1.902274|
|         269|  6.6840e+00|   -4.414065|   -4.529112|   -4.798506|   -4.442797|   -4.212105|  -11.401033|    1.891790|
|         270|  6.6834e+00|   -4.405907|   -4.521765|   -4.792895|   -4.436061|   -4.204561|  -11.392698|    1.881279|
|         271|  6.6828e+00|   -4.398596|   -4.515289|   -4.787102|   -4.430392|   -4.198133|  -11.384413|    1.870746|
|         272|  6.6822e+00|   -4.391826|   -4.509685|   -4.781164|   -4.425614|   -4.192466|  -11.376221|    1.860198|
|         273|  6.6815e+00|   -4.385314|   -4.504896|   -4.775158|   -4.421552|   -4.187232|  -11.368223|    1.849642|
|         274|  6.6807e+00|   -4.378873|   -4.500805|   -4.769167|   -4.418048|   -4.182205|  -11.360568|    1.839086|
|         275|  6.6796e+00|   -4.372419|   -4.497262|   -4.763257|   -4.414986|   -4.177271|  -11.353380|    1.828541|
|         276|  6.6790e+00|   -4.365956|   -4.494128|   -4.757472|   -4.412303|   -4.172418|  -11.346750|    1.818017|
|         277|  6.6783e+00|   -4.359538|   -4.491297|   -4.751835|   -4.409973|   -4.167688|  -11.340717|    1.807528|
|         278|  6.6775e+00|   -4.353241|   -4.488715|   -4.746344|   -4.408001|   -4.163150|  -11.335291|    1.797085|
|         279|  6.6768e+00|   -4.347134|   -4.486381|   -4.740989|   -4.406409|   -4.158863|  -11.330452|    1.786698|
|         280|  6.6762e+00|   -4.341272|   -4.484330|   -4.735758|   -4.405227|   -4.154876|  -11.326170|    1.776376|
|         281|  6.6756e+00|   -4.335690|   -4.482620|   -4.730640|   -4.404485|   -4.151216|  -11.322406|    1.766125|
|         282|  6.6747e+00|   -4.330410|   -4.481314|   -4.725634|   -4.404221|   -4.147903|  -11.319128|    1.755951|
|         283|  6.6738e+00|   -4.325447|   -4.480455|   -4.720747|   -4.404455|   -4.144951|  -11.316303|    1.745856|
|         284|  6.6729e+00|   -4.320814|   -4.480069|   -4.715993|   -4.405208|   -4.142374|  -11.313903|    1.735847|
|         285|  6.6725e+00|   -4.316519|   -4.480168|   -4.711397|   -4.406490|   -4.140186|  -11.311896|    1.725926|
|         286|  6.6717e+00|   -4.312567|   -4.480742|   -4.706982|   -4.408301|   -4.138394|  -11.310251|    1.716096|
|         287|  6.6710e+00|   -4.308953|   -4.481767|   -4.702777|   -4.410628|   -4.136994|  -11.308920|    1.706360|
|         288|  6.6703e+00|   -4.305670|   -4.483214|   -4.698820|   -4.413445|   -4.135974|  -11.307854|    1.696718|
|         289|  6.6696e+00|   -4.302688|   -4.485043|   -4.695122|   -4.416712|   -4.135304|  -11.307012|    1.687172|
|         290|  6.6689e+00|   -4.299977|   -4.487203|   -4.691697|   -4.420372|   -4.134938|  -11.306350|    1.677725|
|         291|  6.6680e+00|   -4.297517|   -4.489641|   -4.688562|   -4.424355|   -4.134837|  -11.305831|    1.668376|
|         292|  6.6673e+00|   -4.295292|   -4.492281|   -4.685725|   -4.428570|   -4.134949|  -11.305417|    1.659128|
|         293|  6.6675e+00|   -4.293263|   -4.495063|   -4.683178|   -4.432926|   -4.135219|  -11.305084|    1.649983|
|         294|  6.6670e+00|   -4.291400|   -4.497888|   -4.680920|   -4.437303|   -4.135572|  -11.304822|    1.640941|
|         295|  6.6664e+00|   -4.289678|   -4.500673|   -4.678937|   -4.441597|   -4.135952|  -11.304614|    1.632005|
|         296|  6.6659e+00|   -4.288081|   -4.503313|   -4.677218|   -4.445677|   -4.136298|  -11.304435|    1.623176|
|         297|  6.6657e+00|   -4.286607|   -4.505707|   -4.675748|   -4.449433|   -4.136561|  -11.304303|    1.614456|
|         298|  6.6653e+00|   -4.285257|   -4.507764|   -4.674504|   -4.452766|   -4.136702|  -11.304160|    1.605847|
|         299|  6.6647e+00|   -4.284031|   -4.509418|   -4.673466|   -4.455591|   -4.136698|  -11.303934|    1.597350|
|         300|  6.6643e+00|   -4.282929|   -4.510625|   -4.672622|   -4.457844|   -4.136535|  -11.303601|    1.588967|
+-----------------------------------------------------------------------+
|        File Writing Summary       |              Filename             |
+-----------------------------------------------------------------------+
|SU2 binary restart                 |restart_flow.dat                   |
|Paraview                           |flow.vtu                           |
|Paraview surface                   |surface_flow.vtu                   |
+-----------------------------------------------------------------------+
+--------------------------------------------------------------------------------------------------------------------+
|  Inner_Iter|   Time(sec)|    rms[Rho]|   rms[RhoU]|   rms[RhoV]|   rms[RhoW]|   rms[RhoE]|     rms[nu]|          CD|
+--------------------------------------------------------------------------------------------------------------------+
|         301|  6.7361e+00|   -4.281951|   -4.511322|   -4.671940|   -4.459461|   -4.136185|  -11.303162|    1.580700|
|         302|  6.7360e+00|   -4.281103|   -4.511483|   -4.671398|   -4.460411|   -4.135642|  -11.302612|    1.572550|
|         303|  6.7357e+00|   -4.280384|   -4.511096|   -4.670973|   -4.460683|   -4.134902|  -11.301939|    1.564516|
|         304|  6.7349e+00|   -4.279810|   -4.510192|   -4.670643|   -4.460292|   -4.133987|  -11.301148|    1.556600|
|         305|  6.7341e+00|   -4.279385|   -4.508800|   -4.670390|   -4.459276|   -4.132913|  -11.300238|    1.548800|
|         306|  6.7337e+00|   -4.279116|   -4.506954|   -4.670217|   -4.457685|   -4.131705|  -11.299265|    1.541118|
|         307|  6.7329e+00|   -4.279001|   -4.504698|   -4.670115|   -4.455576|   -4.130384|  -11.298280|    1.533552|
|         308|  6.7323e+00|   -4.279048|   -4.502105|   -4.670081|   -4.453035|   -4.128989|  -11.297309|    1.526103|
|         309|  6.7317e+00|   -4.279272|   -4.499251|   -4.670122|   -4.450156|   -4.127567|  -11.296400|    1.518770|
|         310|  6.7312e+00|   -4.279670|   -4.496206|   -4.670232|   -4.447026|   -4.126150|  -11.295544|    1.511552|
|         311|  6.7305e+00|   -4.280242|   -4.493050|   -4.670403|   -4.443737|   -4.124779|  -11.294721|    1.504451|
|         312|  6.7298e+00|   -4.280992|   -4.489843|   -4.670655|   -4.440362|   -4.123483|  -11.293886|    1.497466|
|         313|  6.7292e+00|   -4.281914|   -4.486646|   -4.670995|   -4.436966|   -4.122285|  -11.293019|    1.490598|
|         314|  6.7282e+00|   -4.283013|   -4.483537|   -4.671440|   -4.433636|   -4.121227|  -11.292120|    1.483848|
|         315|  6.7277e+00|   -4.284295|   -4.480578|   -4.672009|   -4.430439|   -4.120339|  -11.291193|    1.477217|
|         316|  6.7268e+00|   -4.285751|   -4.477815|   -4.672714|   -4.427427|   -4.119640|  -11.290246|    1.470707|
|         317|  6.7261e+00|   -4.287376|   -4.475290|   -4.673561|   -4.424645|   -4.119146|  -11.289256|    1.464318|
|         318|  6.7255e+00|   -4.289171|   -4.473039|   -4.674564|   -4.422136|   -4.118880|  -11.288175|    1.458052|
|         319|  6.7248e+00|   -4.291139|   -4.471074|   -4.675735|   -4.419906|   -4.118846|  -11.286985|    1.451909|
|         320|  6.7240e+00|   -4.293284|   -4.469452|   -4.677091|   -4.418017|   -4.119082|  -11.285659|    1.445890|
|         321|  6.7235e+00|   -4.295603|   -4.468186|   -4.678644|   -4.416491|   -4.119597|  -11.284201|    1.439996|
|         322|  6.7226e+00|   -4.298089|   -4.467289|   -4.680397|   -4.415341|   -4.120394|  -11.282642|    1.434227|
|         323|  6.7220e+00|   -4.300734|   -4.466767|   -4.682346|   -4.414570|   -4.121471|  -11.281025|    1.428584|
|         324|  6.7211e+00|   -4.303537|   -4.466628|   -4.684505|   -4.414176|   -4.122826|  -11.279339|    1.423065|
|         325|  6.7204e+00|   -4.306491|   -4.466871|   -4.686877|   -4.414155|   -4.124455|  -11.277552|    1.417672|
|         326|  6.7196e+00|   -4.309600|   -4.467508|   -4.689462|   -4.414505|   -4.126364|  -11.275646|    1.412402|
|         327|  6.7193e+00|   -4.312849|   -4.468524|   -4.692245|   -4.415216|   -4.128535|  -11.273643|    1.407256|
|         328|  6.7190e+00|   -4.316240|   -4.469912|   -4.695219|   -4.416284|   -4.130973|  -11.271590|    1.402231|
|         329|  6.7184e+00|   -4.319775|   -4.471662|   -4.698388|   -4.417692|   -4.133668|  -11.269496|    1.397327|
|         330|  6.7180e+00|   -4.323447|   -4.473762|   -4.701748|   -4.419438|   -4.136609|  -11.267352|    1.392541|
|         331|  6.7173e+00|   -4.327252|   -4.476222|   -4.705286|   -4.421525|   -4.139799|  -11.265159|    1.387872|
|         332|  6.7165e+00|   -4.331179|   -4.479025|   -4.708985|   -4.423937|   -4.143220|  -11.262890|    1.383316|
|         333|  6.7158e+00|   -4.335232|   -4.482171|   -4.712837|   -4.426664|   -4.146876|  -11.260545|    1.378873|
|         334|  6.7154e+00|   -4.339406|   -4.485648|   -4.716832|   -4.429699|   -4.150759|  -11.258132|    1.374539|
|         335|  6.7148e+00|   -4.343683|   -4.489444|   -4.720944|   -4.433033|   -4.154853|  -11.255672|    1.370313|
|         336|  6.7142e+00|   -4.348068|   -4.493546|   -4.725181|   -4.436646|   -4.159151|  -11.253198|    1.366191|
|         337|  6.7134e+00|   -4.352553|   -4.497942|   -4.729530|   -4.440517|   -4.163639|  -11.250704|    1.362172|
|         338|  6.7128e+00|   -4.357129|   -4.502613|   -4.733979|   -4.444627|   -4.168302|  -11.248154|    1.358254|
|         339|  6.7122e+00|   -4.361789|   -4.507549|   -4.738509|   -4.448959|   -4.173129|  -11.245541|    1.354433|
|         340|  6.7115e+00|   -4.366516|   -4.512735|   -4.743104|   -4.453500|   -4.178105|  -11.242827|    1.350709|
|         341|  6.7109e+00|   -4.371303|   -4.518156|   -4.747746|   -4.458232|   -4.183217|  -11.240001|    1.347080|
|         342|  6.7104e+00|   -4.376139|   -4.523797|   -4.752425|   -4.463133|   -4.188448|  -11.237095|    1.343544|
|         343|  6.7097e+00|   -4.381016|   -4.529642|   -4.757128|   -4.468182|   -4.193785|  -11.234140|    1.340101|
|         344|  6.7092e+00|   -4.385922|   -4.535681|   -4.761844|   -4.473364|   -4.199215|  -11.231144|    1.336751|
|         345|  6.7087e+00|   -4.390842|   -4.541897|   -4.766553|   -4.478659|   -4.204720|  -11.228111|    1.333494|
|         346|  6.7081e+00|   -4.395767|   -4.548274|   -4.771248|   -4.484046|   -4.210286|  -11.225027|    1.330331|
|         347|  6.7076e+00|   -4.400685|   -4.554780|   -4.775916|   -4.489485|   -4.215888|  -11.221851|    1.327265|
|         348|  6.7069e+00|   -4.405575|   -4.561417|   -4.780543|   -4.494974|   -4.221515|  -11.218548|    1.324297|
|         349|  6.7064e+00|   -4.410422|   -4.568166|   -4.785116|   -4.500488|   -4.227150|  -11.215122|    1.321432|
|         350|  6.7058e+00|   -4.415212|   -4.575009|   -4.789623|   -4.506005|   -4.232775|  -11.211600|    1.318671|
|         351|  6.7054e+00|   -4.419928|   -4.581925|   -4.794056|   -4.511500|   -4.238372|  -11.207977|    1.316020|
|         352|  6.7048e+00|   -4.424550|   -4.588896|   -4.798398|   -4.516947|   -4.243920|  -11.204253|    1.313480|
|         353|  6.7042e+00|   -4.429068|   -4.595901|   -4.802649|   -4.522316|   -4.249397|  -11.200402|    1.311056|
|         354|  6.7038e+00|   -4.433464|   -4.602919|   -4.806802|   -4.527579|   -4.254783|  -11.196424|    1.308750|
|         355|  6.7033e+00|   -4.437717|   -4.609930|   -4.810844|   -4.532708|   -4.260054|  -11.192300|    1.306565|
|         356|  6.7026e+00|   -4.441796|   -4.616907|   -4.814741|   -4.537679|   -4.265183|  -11.188010|    1.304503|
|         357|  6.7022e+00|   -4.445698|   -4.623842|   -4.818497|   -4.542472|   -4.270157|  -11.183555|    1.302564|
|         358|  6.7017e+00|   -4.449419|   -4.630716|   -4.822133|   -4.547065|   -4.274962|  -11.178953|    1.300749|
|         359|  6.7010e+00|   -4.452946|   -4.637503|   -4.825641|   -4.551435|   -4.279579|  -11.174151|    1.299057|
|         360|  6.7003e+00|   -4.456264|   -4.644187|   -4.829001|   -4.555566|   -4.283995|  -11.169152|    1.297486|
|         361|  6.6997e+00|   -4.459364|   -4.650744|   -4.832211|   -4.559437|   -4.288196|  -11.163911|    1.296034|
|         362|  6.6993e+00|   -4.462238|   -4.657148|   -4.835270|   -4.563032|   -4.292168|  -11.158460|    1.294699|
|         363|  6.6988e+00|   -4.464874|   -4.663373|   -4.838169|   -4.566333|   -4.295896|  -11.152789|    1.293476|
|         364|  6.6983e+00|   -4.467258|   -4.669391|   -4.840902|   -4.569326|   -4.299363|  -11.146876|    1.292364|
|         365|  6.6979e+00|   -4.469383|   -4.675177|   -4.843462|   -4.571999|   -4.302559|  -11.140753|    1.291360|
|         366|  6.6972e+00|   -4.471245|   -4.680712|   -4.845841|   -4.574344|   -4.305474|  -11.134469|    1.290460|
|         367|  6.6966e+00|   -4.472833|   -4.685972|   -4.848036|   -4.576356|   -4.308094|  -11.128025|    1.289663|
|         368|  6.6962e+00|   -4.474144|   -4.690942|   -4.850047|   -4.578033|   -4.310416|  -11.121465|    1.288966|
|         369|  6.6957e+00|   -4.475178|   -4.695608|   -4.851876|   -4.579376|   -4.312433|  -11.114778|    1.288369|
|         370|  6.6952e+00|   -4.475934|   -4.699961|   -4.853519|   -4.580391|   -4.314146|  -11.107950|    1.287871|
|         371|  6.6948e+00|   -4.476414|   -4.703988|   -4.854975|   -4.581082|   -4.315550|  -11.100972|    1.287472|
|         372|  6.6943e+00|   -4.476628|   -4.707683|   -4.856246|   -4.581460|   -4.316654|  -11.093814|    1.287171|
|         373|  6.6937e+00|   -4.476579|   -4.711045|   -4.857326|   -4.581532|   -4.317460|  -11.086518|    1.286970|
|         374|  6.6933e+00|   -4.476281|   -4.714074|   -4.858222|   -4.581308|   -4.317977|  -11.079114|    1.286869|
|         375|  6.6930e+00|   -4.475745|   -4.716773|   -4.858940|   -4.580807|   -4.318219|  -11.071642|    1.286868|
|         376|  6.6924e+00|   -4.474976|   -4.719144|   -4.859483|   -4.580037|   -4.318189|  -11.064123|    1.286970|
|         377|  6.6920e+00|   -4.473987|   -4.721197|   -4.859855|   -4.579008|   -4.317900|  -11.056531|    1.287176|
|         378|  6.6915e+00|   -4.472784|   -4.722932|   -4.860058|   -4.577729|   -4.317355|  -11.048841|    1.287486|
|         379|  6.6909e+00|   -4.471376|   -4.724360|   -4.860092|   -4.576214|   -4.316563|  -11.041056|    1.287900|
|         380|  6.6904e+00|   -4.469770|   -4.725490|   -4.859959|   -4.574474|   -4.315532|  -11.033219|    1.288421|
|         381|  6.6897e+00|   -4.467985|   -4.726342|   -4.859663|   -4.572526|   -4.314280|  -11.025359|    1.289046|
|         382|  6.6893e+00|   -4.466026|   -4.726934|   -4.859211|   -4.570378|   -4.312815|  -11.017466|    1.289777|
|         383|  6.6889e+00|   -4.463900|   -4.727286|   -4.858606|   -4.568040|   -4.311142|  -11.009533|    1.290611|
|         384|  6.6884e+00|   -4.461620|   -4.727411|   -4.857858|   -4.565526|   -4.309278|  -11.001581|    1.291550|
|         385|  6.6879e+00|   -4.459207|   -4.727329|   -4.856973|   -4.562860|   -4.307243|  -10.993640|    1.292590|
|         386|  6.6871e+00|   -4.456665|   -4.727056|   -4.855954|   -4.560053|   -4.305046|  -10.985712|    1.293730|
|         387|  6.6868e+00|   -4.453997|   -4.726607|   -4.854798|   -4.557118|   -4.302697|  -10.977767|    1.294968|
|         388|  6.6864e+00|   -4.451222|   -4.726007|   -4.853511|   -4.554073|   -4.300214|  -10.969839|    1.296302|
|         389|  6.6859e+00|   -4.448351|   -4.725281|   -4.852098|   -4.550935|   -4.297617|  -10.961962|    1.297729|
|         390|  6.6854e+00|   -4.445391|   -4.724437|   -4.850561|   -4.547720|   -4.294917|  -10.954147|    1.299246|
|         391|  6.6848e+00|   -4.442359|   -4.723485|   -4.848906|   -4.544447|   -4.292130|  -10.946427|    1.300851|
|         392|  6.6843e+00|   -4.439269|   -4.722439|   -4.847136|   -4.541134|   -4.289276|  -10.938800|    1.302539|
|         393|  6.6838e+00|   -4.436119|   -4.721310|   -4.845256|   -4.537785|   -4.286356|  -10.931199|    1.304309|
|         394|  6.6834e+00|   -4.432925|   -4.720112|   -4.843271|   -4.534418|   -4.283392|  -10.923607|    1.306156|
|         395|  6.6830e+00|   -4.429693|   -4.718857|   -4.841187|   -4.531038|   -4.280389|  -10.916029|    1.308078|
|         396|  6.6825e+00|   -4.426422|   -4.717553|   -4.839008|   -4.527650|   -4.277348|  -10.908464|    1.310071|
|         397|  6.6821e+00|   -4.423118|   -4.716213|   -4.836741|   -4.524261|   -4.274279|  -10.900945|    1.312132|
|         398|  6.6816e+00|   -4.419784|   -4.714847|   -4.834390|   -4.520878|   -4.271184|  -10.893537|    1.314259|
|         399|  6.6810e+00|   -4.416429|   -4.713469|   -4.831965|   -4.517513|   -4.268079|  -10.886222|    1.316449|
|         400|  6.6807e+00|   -4.413064|   -4.712083|   -4.829471|   -4.514175|   -4.264975|  -10.878993|    1.318699|
|         401|  6.6803e+00|   -4.409686|   -4.710690|   -4.826913|   -4.510869|   -4.261871|  -10.871839|    1.321007|
|         402|  6.6800e+00|   -4.406304|   -4.709307|   -4.824297|   -4.507600|   -4.258780|  -10.864680|    1.323371|
|         403|  6.6795e+00|   -4.402916|   -4.707934|   -4.821626|   -4.504366|   -4.255697|  -10.857493|    1.325788|
|         404|  6.6789e+00|   -4.399518|   -4.706577|   -4.818903|   -4.501162|   -4.252620|  -10.850368|    1.328256|
|         405|  6.6785e+00|   -4.396115|   -4.705242|   -4.816135|   -4.497984|   -4.249549|  -10.843337|    1.330775|
|         406|  6.6781e+00|   -4.392715|   -4.703930|   -4.813333|   -4.494836|   -4.246494|  -10.836417|    1.333341|
|         407|  6.6779e+00|   -4.389307|   -4.702645|   -4.810499|   -4.491704|   -4.243442|  -10.829536|    1.335953|
|         408|  6.6775e+00|   -4.385898|   -4.701384|   -4.807641|   -4.488586|   -4.240395|  -10.822657|    1.338609|
|         409|  6.6772e+00|   -4.382488|   -4.700145|   -4.804760|   -4.485482|   -4.237353|  -10.815791|    1.341309|
|         410|  6.6770e+00|   -4.379077|   -4.698926|   -4.801852|   -4.482386|   -4.234313|  -10.808912|    1.344049|
|         411|  6.6765e+00|   -4.375665|   -4.697725|   -4.798922|   -4.479299|   -4.231273|  -10.802043|    1.346829|
|         412|  6.6760e+00|   -4.372264|   -4.696542|   -4.795971|   -4.476228|   -4.228244|  -10.795154|    1.349645|
|         413|  6.6755e+00|   -4.368878|   -4.695376|   -4.793005|   -4.473176|   -4.225228|  -10.788239|    1.352498|
|         414|  6.6755e+00|   -4.365509|   -4.694224|   -4.790030|   -4.470144|   -4.222225|  -10.781245|    1.355383|
|         415|  6.6752e+00|   -4.362164|   -4.693089|   -4.787049|   -4.467141|   -4.219244|  -10.774186|    1.358301|
|         416|  6.6748e+00|   -4.358848|   -4.691966|   -4.784067|   -4.464167|   -4.216287|  -10.767131|    1.361248|
|         417|  6.6744e+00|   -4.355560|   -4.690853|   -4.781094|   -4.461219|   -4.213349|  -10.760110|    1.364223|
|         418|  6.6740e+00|   -4.352298|   -4.689749|   -4.778133|   -4.458295|   -4.210430|  -10.753150|    1.367223|
|         419|  6.6735e+00|   -4.349071|   -4.688657|   -4.775186|   -4.455404|   -4.207537|  -10.746245|    1.370247|
|         420|  6.6734e+00|   -4.345883|   -4.687570|   -4.772262|   -4.452554|   -4.204679|  -10.739423|    1.373293|
|         421|  6.6729e+00|   -4.342740|   -4.686489|   -4.769366|   -4.449758|   -4.201863|  -10.732723|    1.376360|
|         422|  6.6723e+00|   -4.339638|   -4.685418|   -4.766492|   -4.447011|   -4.199084|  -10.726159|    1.379444|
|         423|  6.6718e+00|   -4.336577|   -4.684361|   -4.763637|   -4.444315|   -4.196343|  -10.719716|    1.382546|
|         424|  6.6716e+00|   -4.333559|   -4.683322|   -4.760799|   -4.441676|   -4.193644|  -10.713351|    1.385662|
|         425|  6.6710e+00|   -4.330591|   -4.682290|   -4.757978|   -4.439095|   -4.190992|  -10.707019|    1.388793|
|         426|  6.6705e+00|   -4.327675|   -4.681263|   -4.755174|   -4.436570|   -4.188390|  -10.700697|    1.391936|
|         427|  6.6702e+00|   -4.324810|   -4.680235|   -4.752394|   -4.434103|   -4.185838|  -10.694343|    1.395091|
|         428|  6.6699e+00|   -4.321994|   -4.679201|   -4.749642|   -4.431691|   -4.183333|  -10.688010|    1.398258|
|         429|  6.6693e+00|   -4.319226|   -4.678158|   -4.746919|   -4.429331|   -4.180874|  -10.681690|    1.401435|
|         430|  6.6687e+00|   -4.316517|   -4.677103|   -4.744227|   -4.427028|   -4.178468|  -10.675378|    1.404622|
|         431|  6.6681e+00|   -4.313877|   -4.676041|   -4.741569|   -4.424794|   -4.176129|  -10.669102|    1.407820|
|         432|  6.6675e+00|   -4.311306|   -4.674971|   -4.738953|   -4.422632|   -4.173852|  -10.662854|    1.411027|
|         433|  6.6672e+00|   -4.308790|   -4.673888|   -4.736375|   -4.420532|   -4.171621|  -10.656642|    1.414244|
|         434|  6.6669e+00|   -4.306347|   -4.672793|   -4.733846|   -4.418510|   -4.169459|  -10.650466|    1.417471|
|         435|  6.6664e+00|   -4.303978|   -4.671676|   -4.731359|   -4.416559|   -4.167362|  -10.644340|    1.420708|
|         436|  6.6659e+00|   -4.301699|   -4.670544|   -4.728926|   -4.414697|   -4.165349|  -10.638318|    1.423954|
|         437|  6.6656e+00|   -4.299485|   -4.669392|   -4.726547|   -4.412901|   -4.163394|  -10.632370|    1.427209|
|         438|  6.6654e+00|   -4.297347|   -4.668218|   -4.724234|   -4.411186|   -4.161516|  -10.626477|    1.430472|
|         439|  6.6650e+00|   -4.295284|   -4.667022|   -4.721984|   -4.409547|   -4.159708|  -10.620612|    1.433743|
|         440|  6.6646e+00|   -4.293280|   -4.665797|   -4.719792|   -4.407970|   -4.157951|  -10.614778|    1.437021|
|         441|  6.6642e+00|   -4.291342|   -4.664543|   -4.717658|   -4.406465|   -4.156255|  -10.608986|    1.440304|
|         442|  6.6639e+00|   -4.289477|   -4.663254|   -4.715574|   -4.405029|   -4.154625|  -10.603218|    1.443593|
|         443|  6.6635e+00|   -4.287665|   -4.661926|   -4.713541|   -4.403654|   -4.153041|  -10.597437|    1.446884|
|         444|  6.6634e+00|   -4.285913|   -4.660558|   -4.711563|   -4.402352|   -4.151517|  -10.591652|    1.450178|
|         445|  6.6630e+00|   -4.284203|   -4.659154|   -4.709628|   -4.401112|   -4.150038|  -10.585916|    1.453471|
|         446|  6.6626e+00|   -4.282529|   -4.657712|   -4.707732|   -4.399926|   -4.148596|  -10.580221|    1.456763|
|         447|  6.6621e+00|   -4.280884|   -4.656228|   -4.705877|   -4.398779|   -4.147181|  -10.574552|    1.460052|
|         448|  6.6617e+00|   -4.279262|   -4.654701|   -4.704061|   -4.397668|   -4.145789|  -10.568878|    1.463336|
|         449|  6.6614e+00|   -4.277659|   -4.653133|   -4.702280|   -4.396586|   -4.144417|  -10.563229|    1.466613|
|         450|  6.6609e+00|   -4.276083|   -4.651521|   -4.700536|   -4.395536|   -4.143073|  -10.557601|    1.469880|
+-----------------------------------------------------------------------+
|        File Writing Summary       |              Filename             |
+-----------------------------------------------------------------------+
|SU2 binary restart                 |restart_flow.dat                   |
|Paraview                           |flow.vtu                           |
|Paraview surface                   |surface_flow.vtu                   |
+-----------------------------------------------------------------------+
+--------------------------------------------------------------------------------------------------------------------+
|  Inner_Iter|   Time(sec)|    rms[Rho]|   rms[RhoU]|   rms[RhoV]|   rms[RhoW]|   rms[RhoE]|     rms[nu]|          CD|
+--------------------------------------------------------------------------------------------------------------------+
|         451|  6.7165e+00|   -4.274525|   -4.649857|   -4.698826|   -4.394510|   -4.141748|  -10.551997|    1.473137|
|         452|  6.7189e+00|   -4.272990|   -4.648136|   -4.697158|   -4.393512|   -4.140444|  -10.546380|    1.476382|
|         453|  6.7189e+00|   -4.271473|   -4.646353|   -4.695531|   -4.392532|   -4.139153|  -10.540790|    1.479611|
|         454|  6.7185e+00|   -4.269974|   -4.644501|   -4.693944|   -4.391566|   -4.137871|  -10.535233|    1.482824|
|         455|  6.7182e+00|   -4.268500|   -4.642576|   -4.692398|   -4.390618|   -4.136604|  -10.529707|    1.486019|
|         456|  6.7178e+00|   -4.267063|   -4.640570|   -4.690903|   -4.389700|   -4.135364|  -10.524227|    1.489194|
|         457|  6.7176e+00|   -4.265661|   -4.638475|   -4.689451|   -4.388803|   -4.134142|  -10.518775|    1.492348|
|         458|  6.7171e+00|   -4.264295|   -4.636285|   -4.688035|   -4.387927|   -4.132933|  -10.513335|    1.495479|
|         459|  6.7165e+00|   -4.262979|   -4.633993|   -4.686651|   -4.387090|   -4.131755|  -10.507920|    1.498587|
|         460|  6.7160e+00|   -4.261706|   -4.631597|   -4.685290|   -4.386286|   -4.130599|  -10.502536|    1.501670|
|         461|  6.7155e+00|   -4.260479|   -4.629090|   -4.683955|   -4.385518|   -4.129471|  -10.497152|    1.504728|
|         462|  6.7150e+00|   -4.259307|   -4.626467|   -4.682646|   -4.384801|   -4.128383|  -10.491736|    1.507761|
|         463|  6.7144e+00|   -4.258211|   -4.623718|   -4.681373|   -4.384153|   -4.127360|  -10.486282|    1.510768|
|         464|  6.7138e+00|   -4.257171|   -4.620832|   -4.680133|   -4.383559|   -4.126379|  -10.480778|    1.513750|
|         465|  6.7133e+00|   -4.256183|   -4.617793|   -4.678911|   -4.383017|   -4.125434|  -10.475197|    1.516705|
|         466|  6.7129e+00|   -4.255242|   -4.614587|   -4.677705|   -4.382531|   -4.124524|  -10.469554|    1.519634|
|         467|  6.7125e+00|   -4.254358|   -4.611197|   -4.676524|   -4.382108|   -4.123665|  -10.463854|    1.522535|
|         468|  6.7121e+00|   -4.253527|   -4.607606|   -4.675364|   -4.381752|   -4.122855|  -10.458046|    1.525410|
|         469|  6.7116e+00|   -4.252751|   -4.603790|   -4.674218|   -4.381459|   -4.122094|  -10.452125|    1.528256|
|         470|  6.7114e+00|   -4.252037|   -4.599727|   -4.673085|   -4.381236|   -4.121392|  -10.446105|    1.531072|
|         471|  6.7111e+00|   -4.251391|   -4.595385|   -4.671971|   -4.381092|   -4.120757|  -10.439971|    1.533860|
|         472|  6.7107e+00|   -4.250799|   -4.590731|   -4.670860|   -4.381021|   -4.120175|  -10.433727|    1.536616|
|         473|  6.7104e+00|   -4.250260|   -4.585727|   -4.669743|   -4.381019|   -4.119647|  -10.427370|    1.539341|
|         474|  6.7101e+00|   -4.249779|   -4.580328|   -4.668607|   -4.381086|   -4.119181|  -10.420907|    1.542032|
|         475|  6.7098e+00|   -4.249355|   -4.574482|   -4.667434|   -4.381215|   -4.118775|  -10.414388|    1.544691|
|         476|  6.7093e+00|   -4.248986|   -4.568129|   -4.666207|   -4.381399|   -4.118429|  -10.407827|    1.547314|
|         477|  6.7090e+00|   -4.248665|   -4.561201|   -4.664898|   -4.381614|   -4.118135|  -10.401220|    1.549901|
|         478|  6.7085e+00|   -4.248391|   -4.553630|   -4.663492|   -4.381844|   -4.117895|  -10.394581|    1.552450|
|         479|  6.7082e+00|   -4.248143|   -4.545330|   -4.661970|   -4.382041|   -4.117681|  -10.387942|    1.554959|
|         480|  6.7079e+00|   -4.247899|   -4.536243|   -4.660303|   -4.382155|   -4.117466|  -10.381322|    1.557427|
|         481|  6.7075e+00|   -4.247642|   -4.526275|   -4.658460|   -4.382119|   -4.117221|  -10.374703|    1.559852|
|         482|  6.7072e+00|   -4.247338|   -4.515355|   -4.656412|   -4.381832|   -4.116894|  -10.368052|    1.562230|
|         483|  6.7067e+00|   -4.246937|   -4.503425|   -4.654111|   -4.381162|   -4.116405|  -10.361362|    1.564559|
|         484|  6.7063e+00|   -4.246369|   -4.490499|   -4.651511|   -4.379967|   -4.115657|  -10.354583|    1.566837|
|         485|  6.7058e+00|   -4.245584|   -4.476597|   -4.648561|   -4.378091|   -4.114566|  -10.347669|    1.569059|
|         486|  6.7053e+00|   -4.244521|   -4.461742|   -4.645209|   -4.375360|   -4.113022|  -10.340628|    1.571222|
|         487|  6.7049e+00|   -4.243122|   -4.446035|   -4.641417|   -4.371628|   -4.110930|  -10.333494|    1.573321|
|         488|  6.7045e+00|   -4.241334|   -4.429628|   -4.637152|   -4.366755|   -4.108196|  -10.326302|    1.575351|
|         489|  6.7041e+00|   -4.239075|   -4.412791|   -4.632388|   -4.360632|   -4.104714|  -10.319042|    1.577309|
|         490|  6.7037e+00|   -4.236298|   -4.395675|   -4.627119|   -4.353185|   -4.100423|  -10.311708|    1.579190|
|         491|  6.7034e+00|   -4.232975|   -4.378339|   -4.621346|   -4.344381|   -4.095279|  -10.304291|    1.580992|
|         492|  6.7031e+00|   -4.229050|   -4.360845|   -4.615096|   -4.334244|   -4.089220|  -10.296845|    1.582715|
|         493|  6.7028e+00|   -4.224533|   -4.343221|   -4.608412|   -4.322818|   -4.082227|  -10.289349|    1.584360|
|         494|  6.7027e+00|   -4.219477|   -4.325581|   -4.601301|   -4.310205|   -4.074324|  -10.281769|    1.585934|
|         495|  6.7025e+00|   -4.213888|   -4.308118|   -4.593786|   -4.296665|   -4.065585|  -10.274068|    1.587441|
|         496|  6.7021e+00|   -4.207804|   -4.290950|   -4.585907|   -4.282478|   -4.056144|  -10.266216|    1.588889|
|         497|  6.6976e+00|   -4.201279|   -4.274166|   -4.577730|   -4.267950|   -4.046157|  -10.273419|    1.588935|
|         498|  6.6930e+00|   -4.201135|   -4.273691|   -4.577600|   -4.267550|   -4.045992|  -10.272948|    1.588989|
|         499|  6.6883e+00|   -4.200967|   -4.273124|   -4.577440|   -4.267077|   -4.045803|  -10.272384|    1.589055|
|         500|  6.6848e+00|   -4.200773|   -4.272446|   -4.577240|   -4.266520|   -4.045590|  -10.271706|    1.589133|
|         501|  6.6811e+00|   -4.200549|   -4.271645|   -4.576992|   -4.265866|   -4.045351|  -10.270893|    1.589227|
|         502|  6.6773e+00|   -4.200293|   -4.270695|   -4.576683|   -4.265102|   -4.045090|  -10.269917|    1.589340|
|         503|  6.6738e+00|   -4.200006|   -4.269568|   -4.576292|   -4.264211|   -4.044810|  -10.268748|    1.589474|
|         504|  6.6702e+00|   -4.199686|   -4.268229|   -4.575795|   -4.263179|   -4.044520|  -10.267346|    1.589636|
|         505|  6.6668e+00|   -4.199335|   -4.266643|   -4.575162|   -4.261990|   -4.044231|  -10.265666|    1.589828|
|         506|  6.6631e+00|   -4.198953|   -4.264762|   -4.574355|   -4.260624|   -4.043955|  -10.263657|    1.590059|
|         507|  6.6604e+00|   -4.198534|   -4.262546|   -4.573335|   -4.259057|   -4.043695|  -10.261256|    1.590336|
|         508|  6.6576e+00|   -4.198068|   -4.259908|   -4.572032|   -4.257241|   -4.043448|  -10.258392|    1.590666|
|         509|  6.6549e+00|   -4.197519|   -4.256758|   -4.570371|   -4.255116|   -4.043187|  -10.254978|    1.591061|
|         510|  6.6529e+00|   -4.196818|   -4.252990|   -4.568271|   -4.252603|   -4.042834|  -10.250926|    1.591534|
|         511|  6.6509e+00|   -4.195825|   -4.248465|   -4.565648|   -4.249553|   -4.042205|  -10.246143|    1.592098|
|         512|  6.6491e+00|   -4.194287|   -4.242988|   -4.562406|   -4.245684|   -4.040933|  -10.240529|    1.592772|
|         513|  6.6482e+00|   -4.191820|   -4.236241|   -4.558452|   -4.240548|   -4.038407|  -10.233982|    1.593574|
|         514|  6.6472e+00|   -4.187882|   -4.227875|   -4.553684|   -4.233545|   -4.033751|  -10.226424|    1.594527|
|         515|  6.6470e+00|   -4.181837|   -4.217512|   -4.547894|   -4.223989|   -4.025939|  -10.217803|    1.595655|
|         516|  6.6469e+00|   -4.173124|   -4.204823|   -4.540790|   -4.211322|   -4.014057|  -10.208994|    1.596901|
|         517|  6.6466e+00|   -4.162466|   -4.190980|   -4.532578|   -4.196723|   -3.999188|  -10.201268|    1.598115|
|         518|  6.6464e+00|   -4.151875|   -4.177212|   -4.524170|   -4.182276|   -3.984214|  -10.193524|    1.599292|
|         519|  6.6461e+00|   -4.141886|   -4.163412|   -4.515288|   -4.168136|   -3.969782|  -10.185670|    1.600429|
|         520|  6.6459e+00|   -4.132662|   -4.149825|   -4.505925|   -4.154656|   -3.956307|  -10.177701|    1.601524|
|         521|  6.6456e+00|   -4.124253|   -4.136748|   -4.496193|   -4.141944|   -3.943910|  -10.169673|    1.602573|
|         522|  6.6454e+00|   -4.116533|   -4.124004|   -4.486354|   -4.129957|   -3.932435|  -10.161632|    1.603572|
|         523|  6.6453e+00|   -4.109260|   -4.111823|   -4.476495|   -4.118852|   -3.921860|  -10.153647|    1.604520|
|         524|  6.6451e+00|   -4.102144|   -4.100143|   -4.466739|   -4.108309|   -3.911861|  -10.145741|    1.605414|
|         525|  6.6448e+00|   -4.095111|   -4.089096|   -4.457309|   -4.098448|   -3.902444|  -10.137936|    1.606253|
|         526|  6.6445e+00|   -4.087994|   -4.078595|   -4.448254|   -4.088920|   -3.893358|  -10.130220|    1.607036|
|         527|  6.6444e+00|   -4.080779|   -4.068618|   -4.439634|   -4.079626|   -3.884505|  -10.122593|    1.607761|
|         528|  6.6442e+00|   -4.073655|   -4.059267|   -4.431672|   -4.070726|   -3.875949|  -10.115083|    1.608430|
|         529|  6.6440e+00|   -4.067160|   -4.051433|   -4.424411|   -4.062789|   -3.868274|  -10.107732|    1.609040|
|         530|  6.6438e+00|   -4.061267|   -4.044849|   -4.417914|   -4.055659|   -3.861462|  -10.100557|    1.609593|
|         531|  6.6438e+00|   -4.055925|   -4.039160|   -4.412130|   -4.049184|   -3.855399|  -10.093612|    1.610088|
|         532|  6.6436e+00|   -4.051362|   -4.034515|   -4.407199|   -4.043567|   -3.850257|  -10.086929|    1.610524|
|         533|  6.6432e+00|   -4.047639|   -4.030945|   -4.403136|   -4.038931|   -3.846120|  -10.080548|    1.610903|
|         534|  6.6430e+00|   -4.044822|   -4.028481|   -4.400042|   -4.035381|   -3.843058|  -10.074487|    1.611223|
|         535|  6.6427e+00|   -4.043031|   -4.027241|   -4.397956|   -4.033005|   -3.841150|  -10.068749|    1.611486|
|         536|  6.6426e+00|   -4.042239|   -4.027038|   -4.396846|   -4.031778|   -3.840349|  -10.063361|    1.611691|
|         537|  6.6424e+00|   -4.042440|   -4.027796|   -4.396712|   -4.031722|   -3.840630|  -10.058320|    1.611839|
|         538|  6.6421e+00|   -4.043624|   -4.029435|   -4.397563|   -4.032804|   -3.841969|  -10.053652|    1.611930|
[...]
|        6356|  6.7455e+00|   -7.909074|   -8.108670|   -8.375450|   -7.972072|   -7.779559|   -9.104460|    1.538719|
|        6357|  6.7455e+00|   -7.909956|   -8.111816|   -8.376595|   -7.973397|   -7.780626|   -9.104990|    1.538718|
|        6358|  6.7454e+00|   -7.910844|   -8.114928|   -8.377715|   -7.974703|   -7.781694|   -9.105502|    1.538716|
|        6359|  6.7454e+00|   -7.911739|   -8.118004|   -8.378809|   -7.975989|   -7.782760|   -9.105996|    1.538715|
|        6360|  6.7454e+00|   -7.912639|   -8.121040|   -8.379879|   -7.977255|   -7.783826|   -9.106472|    1.538713|
|        6361|  6.7454e+00|   -7.913545|   -8.124035|   -8.380923|   -7.978501|   -7.784890|   -9.106929|    1.538712|
|        6362|  6.7454e+00|   -7.914455|   -8.126986|   -8.381943|   -7.979726|   -7.785951|   -9.107366|    1.538710|
|        6363|  6.7453e+00|   -7.915369|   -8.129890|   -8.382939|   -7.980930|   -7.787010|   -9.107784|    1.538709|
|        6364|  6.7453e+00|   -7.916287|   -8.132746|   -8.383912|   -7.982112|   -7.788066|   -9.108181|    1.538707|
|        6365|  6.7453e+00|   -7.917208|   -8.135551|   -8.384862|   -7.983271|   -7.789118|   -9.108558|    1.538706|
|        6366|  6.7453e+00|   -7.918131|   -8.138303|   -8.385789|   -7.984409|   -7.790165|   -9.108914|    1.538704|
|        6367|  6.7452e+00|   -7.919056|   -8.140999|   -8.386695|   -7.985524|   -7.791207|   -9.109249|    1.538703|
|        6368|  6.7452e+00|   -7.919983|   -8.143638|   -8.387580|   -7.986616|   -7.792244|   -9.109561|    1.538701|
|        6369|  6.7452e+00|   -7.920911|   -8.146217|   -8.388445|   -7.987686|   -7.793275|   -9.109853|    1.538700|
|        6370|  6.7452e+00|   -7.921840|   -8.148735|   -8.389290|   -7.988733|   -7.794300|   -9.110122|    1.538698|
|        6371|  6.7452e+00|   -7.922769|   -8.151190|   -8.390118|   -7.989757|   -7.795318|   -9.110369|    1.538697|
|        6372|  6.7451e+00|   -7.923697|   -8.153578|   -8.390928|   -7.990758|   -7.796330|   -9.110593|    1.538696|
|        6373|  6.7451e+00|   -7.924625|   -8.155900|   -8.391721|   -7.991736|   -7.797333|   -9.110796|    1.538694|
|        6374|  6.7451e+00|   -7.925552|   -8.158153|   -8.392498|   -7.992690|   -7.798329|   -9.110976|    1.538693|
|        6375|  6.7451e+00|   -7.926476|   -8.160334|   -8.393261|   -7.993622|   -7.799317|   -9.111133|    1.538692|
|        6376|  6.7451e+00|   -7.927399|   -8.162444|   -8.394010|   -7.994530|   -7.800296|   -9.111268|    1.538690|
|        6377|  6.7450e+00|   -7.928319|   -8.164479|   -8.394747|   -7.995415|   -7.801265|   -9.111380|    1.538689|
|        6378|  6.7450e+00|   -7.929236|   -8.166437|   -8.395471|   -7.996277|   -7.802225|   -9.111471|    1.538688|
|        6379|  6.7450e+00|   -7.930149|   -8.168318|   -8.396185|   -7.997116|   -7.803175|   -9.111539|    1.538686|
|        6380|  6.7450e+00|   -7.931058|   -8.170119|   -8.396888|   -7.997933|   -7.804114|   -9.111585|    1.538685|
|        6381|  6.7450e+00|   -7.931963|   -8.171839|   -8.397582|   -7.998726|   -7.805042|   -9.111610|    1.538684|
|        6382|  6.7450e+00|   -7.932862|   -8.173475|   -8.398269|   -7.999496|   -7.805958|   -9.111613|    1.538683|
|        6383|  6.7449e+00|   -7.933757|   -8.175025|   -8.398948|   -8.000243|   -7.806862|   -9.111595|    1.538682|
|        6384|  6.7449e+00|   -7.934645|   -8.176488|   -8.399620|   -8.000968|   -7.807754|   -9.111555|    1.538680|
|        6385|  6.7449e+00|   -7.935526|   -8.177863|   -8.400285|   -8.001669|   -7.808632|   -9.111496|    1.538679|
|        6386|  6.7449e+00|   -7.936402|   -8.179147|   -8.400945|   -8.002347|   -7.809497|   -9.111416|    1.538678|
|        6387|  6.7448e+00|   -7.937271|   -8.180340|   -8.401600|   -8.003002|   -7.810349|   -9.111316|    1.538677|
|        6388|  6.7448e+00|   -7.938133|   -8.181439|   -8.402251|   -8.003635|   -7.811187|   -9.111198|    1.538676|
|        6389|  6.7448e+00|   -7.938987|   -8.182444|   -8.402899|   -8.004246|   -7.812011|   -9.111060|    1.538675|
|        6390|  6.7448e+00|   -7.939835|   -8.183353|   -8.403543|   -8.004834|   -7.812821|   -9.110904|    1.538674|
|        6391|  6.7447e+00|   -7.940674|   -8.184165|   -8.404184|   -8.005401|   -7.813616|   -9.110731|    1.538673|
|        6392|  6.7447e+00|   -7.941506|   -8.184879|   -8.404824|   -8.005944|   -7.814395|   -9.110540|    1.538672|
|        6393|  6.7447e+00|   -7.942330|   -8.185494|   -8.405462|   -8.006466|   -7.815159|   -9.110333|    1.538671|
|        6394|  6.7447e+00|   -7.943145|   -8.186009|   -8.406099|   -8.006966|   -7.815908|   -9.110109|    1.538670|
|        6395|  6.7447e+00|   -7.943953|   -8.186424|   -8.406735|   -8.007444|   -7.816640|   -9.109871|    1.538669|
|        6396|  6.7446e+00|   -7.944751|   -8.186737|   -8.407371|   -8.007900|   -7.817356|   -9.109618|    1.538668|
|        6397|  6.7446e+00|   -7.945541|   -8.186949|   -8.408006|   -8.008334|   -7.818055|   -9.109352|    1.538667|
|        6398|  6.7446e+00|   -7.946323|   -8.187058|   -8.408643|   -8.008746|   -7.818736|   -9.109072|    1.538666|
|        6399|  6.7446e+00|   -7.947095|   -8.187065|   -8.409279|   -8.009136|   -7.819401|   -9.108781|    1.538665|
|        6400|  6.7446e+00|   -7.947858|   -8.186970|   -8.409917|   -8.009504|   -7.820048|   -9.108477|    1.538664|
|        6401|  6.7446e+00|   -7.948613|   -8.186772|   -8.410556|   -8.009850|   -7.820677|   -9.108164|    1.538663|
|        6402|  6.7445e+00|   -7.949358|   -8.186472|   -8.411195|   -8.010175|   -7.821288|   -9.107840|    1.538662|
|        6403|  6.7445e+00|   -7.950093|   -8.186071|   -8.411836|   -8.010479|   -7.821880|   -9.107507|    1.538662|
|        6404|  6.7445e+00|   -7.950820|   -8.185569|   -8.412477|   -8.010760|   -7.822454|   -9.107167|    1.538661|
|        6405|  6.7445e+00|   -7.951537|   -8.184968|   -8.413119|   -8.011020|   -7.823009|   -9.106819|    1.538660|
|        6406|  6.7445e+00|   -7.952245|   -8.184270|   -8.413762|   -8.011258|   -7.823545|   -9.106464|    1.538659|
|        6407|  6.7444e+00|   -7.952944|   -8.183475|   -8.414406|   -8.011475|   -7.824062|   -9.106104|    1.538659|
|        6408|  6.7444e+00|   -7.953635|   -8.182587|   -8.415051|   -8.011670|   -7.824561|   -9.105740|    1.538658|
|        6409|  6.7444e+00|   -7.954317|   -8.181607|   -8.415696|   -8.011844|   -7.825042|   -9.105372|    1.538657|
|        6410|  6.7443e+00|   -7.954991|   -8.180537|   -8.416342|   -8.011998|   -7.825503|   -9.105001|    1.538656|
|        6411|  6.7443e+00|   -7.955657|   -8.179381|   -8.416989|   -8.012131|   -7.825946|   -9.104628|    1.538656|
|        6412|  6.7443e+00|   -7.956316|   -8.178142|   -8.417637|   -8.012243|   -7.826370|   -9.104254|    1.538655|
|        6413|  6.7443e+00|   -7.956967|   -8.176822|   -8.418284|   -8.012336|   -7.826777|   -9.103880|    1.538654|
|        6414|  6.7443e+00|   -7.957611|   -8.175425|   -8.418933|   -8.012409|   -7.827165|   -9.103507|    1.538654|
|        6415|  6.7442e+00|   -7.958249|   -8.173955|   -8.419582|   -8.012463|   -7.827536|   -9.103135|    1.538653|
|        6416|  6.7442e+00|   -7.958881|   -8.172416|   -8.420231|   -8.012498|   -7.827890|   -9.102767|    1.538653|
|        6417|  6.7442e+00|   -7.959507|   -8.170811|   -8.420881|   -8.012515|   -7.828227|   -9.102402|    1.538652|
|        6418|  6.7442e+00|   -7.960128|   -8.169145|   -8.421531|   -8.012514|   -7.828547|   -9.102041|    1.538652|
|        6419|  6.7441e+00|   -7.960745|   -8.167422|   -8.422182|   -8.012496|   -7.828851|   -9.101686|    1.538651|
|        6420|  6.7441e+00|   -7.961357|   -8.165646|   -8.422833|   -8.012462|   -7.829140|   -9.101337|    1.538650|
|        6421|  6.7441e+00|   -7.961966|   -8.163823|   -8.423485|   -8.012411|   -7.829414|   -9.100994|    1.538650|
|        6422|  6.7441e+00|   -7.962572|   -8.161956|   -8.424138|   -8.012345|   -7.829673|   -9.100660|    1.538649|
|        6423|  6.7440e+00|   -7.963174|   -8.160050|   -8.424791|   -8.012264|   -7.829918|   -9.100335|    1.538649|
|        6424|  6.7440e+00|   -7.963775|   -8.158111|   -8.425444|   -8.012169|   -7.830150|   -9.100019|    1.538649|
|        6425|  6.7440e+00|   -7.964374|   -8.156142|   -8.426099|   -8.012060|   -7.830369|   -9.099714|    1.538648|
|        6426|  6.7440e+00|   -7.964972|   -8.154150|   -8.426755|   -8.011938|   -7.830575|   -9.099419|    1.538648|
|        6427|  6.7440e+00|   -7.965570|   -8.152138|   -8.427412|   -8.011805|   -7.830771|   -9.099137|    1.538647|
|        6428|  6.7439e+00|   -7.966168|   -8.150112|   -8.428070|   -8.011661|   -7.830956|   -9.098867|    1.538647|
|        6429|  6.7439e+00|   -7.966766|   -8.148076|   -8.428730|   -8.011506|   -7.831132|   -9.098610|    1.538646|
|        6430|  6.7439e+00|   -7.967366|   -8.146036|   -8.429391|   -8.011342|   -7.831298|   -9.098368|    1.538646|
|        6431|  6.7438e+00|   -7.967968|   -8.143996|   -8.430055|   -8.011170|   -7.831456|   -9.098140|    1.538646|
|        6432|  6.7438e+00|   -7.968572|   -8.141961|   -8.430720|   -8.010990|   -7.831607|   -9.097928|    1.538645|
|        6433|  6.7438e+00|   -7.969180|   -8.139935|   -8.431388|   -8.010804|   -7.831752|   -9.097731|    1.538645|
|        6434|  6.7438e+00|   -7.969791|   -8.137924|   -8.432057|   -8.010613|   -7.831892|   -9.097551|    1.538645|
|        6435|  6.7438e+00|   -7.970407|   -8.135932|   -8.432729|   -8.010418|   -7.832027|   -9.097388|    1.538644|
|        6436|  6.7437e+00|   -7.971027|   -8.133962|   -8.433404|   -8.010219|   -7.832158|   -9.097242|    1.538644|
|        6437|  6.7437e+00|   -7.971653|   -8.132021|   -8.434081|   -8.010018|   -7.832288|   -9.097115|    1.538644|
|        6438|  6.7437e+00|   -7.972286|   -8.130111|   -8.434760|   -8.009816|   -7.832415|   -9.097006|    1.538644|
|        6439|  6.7437e+00|   -7.972924|   -8.128236|   -8.435443|   -8.009613|   -7.832543|   -9.096916|    1.538643|
|        6440|  6.7436e+00|   -7.973570|   -8.126401|   -8.436128|   -8.009412|   -7.832670|   -9.096845|    1.538643|
|        6441|  6.7436e+00|   -7.974223|   -8.124610|   -8.436816|   -8.009212|   -7.832798|   -9.096794|    1.538643|
|        6442|  6.7436e+00|   -7.974883|   -8.122865|   -8.437507|   -8.009016|   -7.832929|   -9.096763|    1.538643|
|        6443|  6.7436e+00|   -7.975552|   -8.121171|   -8.438201|   -8.008823|   -7.833063|   -9.096752|    1.538642|
|        6444|  6.7436e+00|   -7.976229|   -8.119531|   -8.438897|   -8.008636|   -7.833202|   -9.096762|    1.538642|
|        6445|  6.7435e+00|   -7.976916|   -8.117948|   -8.439596|   -8.008455|   -7.833345|   -9.096793|    1.538642|
|        6446|  6.7435e+00|   -7.977611|   -8.116425|   -8.440298|   -8.008281|   -7.833495|   -9.096844|    1.538642|
|        6447|  6.7435e+00|   -7.978315|   -8.114965|   -8.441001|   -8.008115|   -7.833651|   -9.096916|    1.538642|
|        6448|  6.7435e+00|   -7.979029|   -8.113570|   -8.441706|   -8.007959|   -7.833815|   -9.097010|    1.538642|
|        6449|  6.7435e+00|   -7.979753|   -8.112244|   -8.442413|   -8.007813|   -7.833988|   -9.097124|    1.538641|
|        6450|  6.7434e+00|   -7.980486|   -8.110987|   -8.443121|   -8.007678|   -7.834169|   -9.097260|    1.538641|
+-----------------------------------------------------------------------+
|        File Writing Summary       |              Filename             |
+-----------------------------------------------------------------------+
|SU2 binary restart                 |restart_flow.dat                   |
|Paraview                           |flow.vtu                           |
|Paraview surface                   |surface_flow.vtu                   |
+-----------------------------------------------------------------------+
+--------------------------------------------------------------------------------------------------------------------+
|  Inner_Iter|   Time(sec)|    rms[Rho]|   rms[RhoU]|   rms[RhoV]|   rms[RhoW]|   rms[RhoE]|     rms[nu]|          CD|
+--------------------------------------------------------------------------------------------------------------------+
|        6451|  6.7467e+00|   -7.981229|   -8.109804|   -8.443829|   -8.007555|   -7.834361|   -9.097417|    1.538641|
|        6452|  6.7468e+00|   -7.981981|   -8.108695|   -8.444536|   -8.007446|   -7.834564|   -9.097596|    1.538641|
|        6453|  6.7468e+00|   -7.982743|   -8.107663|   -8.445243|   -8.007350|   -7.834779|   -9.097795|    1.538641|
|        6454|  6.7468e+00|   -7.983514|   -8.106710|   -8.445948|   -8.007270|   -7.835005|   -9.098015|    1.538641|
|        6455|  6.7468e+00|   -7.984295|   -8.105836|   -8.446651|   -8.007206|   -7.835246|   -9.098255|    1.538641|
|        6456|  6.7468e+00|   -7.985085|   -8.105044|   -8.447349|   -8.007159|   -7.835499|   -9.098516|    1.538640|
|        6457|  6.7467e+00|   -7.985884|   -8.104335|   -8.448043|   -8.007129|   -7.835767|   -9.098798|    1.538640|
|        6458|  6.7467e+00|   -7.986691|   -8.103709|   -8.448731|   -8.007117|   -7.836050|   -9.099099|    1.538640|
|        6459|  6.7467e+00|   -7.987506|   -8.103168|   -8.449412|   -8.007123|   -7.836348|   -9.099419|    1.538640|
|        6460|  6.7467e+00|   -7.988328|   -8.102712|   -8.450084|   -8.007148|   -7.836660|   -9.099759|    1.538640|
|        6461|  6.7467e+00|   -7.989157|   -8.102343|   -8.450747|   -8.007192|   -7.836988|   -9.100117|    1.538640|
|        6462|  6.7467e+00|   -7.989993|   -8.102059|   -8.451399|   -8.007257|   -7.837332|   -9.100494|    1.538640|
|        6463|  6.7466e+00|   -7.990834|   -8.101862|   -8.452038|   -8.007342|   -7.837693|   -9.100888|    1.538640|
|        6464|  6.7466e+00|   -7.991680|   -8.101752|   -8.452662|   -8.007448|   -7.838070|   -9.101299|    1.538640|
|        6465|  6.7466e+00|   -7.992529|   -8.101729|   -8.453269|   -8.007574|   -7.838463|   -9.101727|    1.538640|
|        6466|  6.7466e+00|   -7.993382|   -8.101792|   -8.453858|   -8.007722|   -7.838872|   -9.102171|    1.538640|
|        6467|  6.7465e+00|   -7.994236|   -8.101940|   -8.454427|   -8.007891|   -7.839297|   -9.102629|    1.538640|
|        6468|  6.7465e+00|   -7.995092|   -8.102173|   -8.454974|   -8.008082|   -7.839738|   -9.103103|    1.538639|
|        6469|  6.7465e+00|   -7.995947|   -8.102491|   -8.455496|   -8.008294|   -7.840196|   -9.103590|    1.538639|
|        6470|  6.7465e+00|   -7.996802|   -8.102892|   -8.455993|   -8.008528|   -7.840670|   -9.104090|    1.538639|
|        6471|  6.7465e+00|   -7.997654|   -8.103375|   -8.456461|   -8.008783|   -7.841159|   -9.104602|    1.538639|
|        6472|  6.7464e+00|   -7.998503|   -8.103939|   -8.456899|   -8.009060|   -7.841663|   -9.105126|    1.538639|
|        6473|  6.7464e+00|   -7.999347|   -8.104582|   -8.457305|   -8.009359|   -7.842183|   -9.105659|    1.538639|
|        6474|  6.7464e+00|   -8.000186|   -8.105303|   -8.457677|   -8.009679|   -7.842717|   -9.106203|    1.538639|

----------------------------- Solver Exit -------------------------------
All convergence criteria satisfied.
+-----------------------------------------------------------------------+
|      Convergence Field     |     Value    |   Criterion  |  Converged |
+-----------------------------------------------------------------------+
|                    rms[Rho]|      -8.00019|          < -8|         Yes|
+-----------------------------------------------------------------------+
-------------------------------------------------------------------------
+-----------------------------------------------------------------------+
|        File Writing Summary       |              Filename             |
+-----------------------------------------------------------------------+
|SU2 binary restart                 |restart_flow.dat                   |
|Paraview                           |flow.vtu                           |
|Paraview surface                   |surface_flow.vtu                   |
+-----------------------------------------------------------------------+

------------------------- Solver Postprocessing -------------------------
Deleted CNumerics container.
Deleted CIntegration container.
Deleted CSolver container.
Deleted CIteration container.
Deleted CInterface container.
Deleted CGeometry container.
Deleted CFreeFormDefBox class.
Deleted CSurfaceMovement class.
Deleted CVolumetricMovement class.
Deleted CConfig container.
Deleted nInst container.
Deleted COutput class.
-------------------------------------------------------------------------

------------------------- Exit Success (SU2_CFD) ------------------------


scontrol show job 1228487
JobId=1228487 JobName=m1.5_aoa50
   UserId=anthonyy(3152141) GroupId=anthonyy(3152141) MCS_label=N/A
   Priority=659243 Nice=0 Account=rrg-jphickey QOS=normal
   JobState=COMPLETING Reason=None Dependency=(null)
   Requeue=0 Restarts=0 BatchFlag=1 Reboot=0 ExitCode=0:0
   RunTime=12:16:57 TimeLimit=18:00:00 TimeMin=N/A
   SubmitTime=2026-03-25T02:35:46 EligibleTime=2026-03-25T02:35:46
   AccrueTime=2026-03-25T02:35:46
   StartTime=2026-03-25T17:02:01 EndTime=2026-03-26T05:18:58 Deadline=N/A
   SuspendTime=None SecsPreSuspend=0 LastSchedEval=2026-03-25T17:02:01 Scheduler=Main
   Partition=compute AllocNode:Sid=tri-login01:1156378
   ReqNodeList=(null) ExcNodeList=(null)
   NodeList=tri[0299,0740]
   BatchHost=tri0299
   NumNodes=2 NumCPUs=384 NumTasks=128 CPUs/Task=1 ReqB:S:C:T=0:0:*:*
   ReqTRES=cpu=384,mem=1534000M,node=2,billing=384
   AllocTRES=cpu=384,mem=1534000M,node=2,billing=384
   Socks/Node=* NtasksPerN:B:S:C=64:0:*:* CoreSpec=*
   MinCPUsNode=64 MinMemoryNode=0 MinTmpDiskNode=0
   Features=(null) DelayBoot=00:00:00
   OverSubscribe=NO Contiguous=0 Licenses=(null) LicensesAlloc=(null) Network=(null)
   Command=/scratch/anthonyy/reentry/orion/config/run.sh
   SubmitLine=SBATCH --comment /opt/slurm/bin/sbatch --export=NONE --get-user-env --job-name m1.5_aoa50 --nodes 2 --ntasks-per-node 64 --cpus-per-task 1 --mem 0 --time 18:00:00 --account rrg-jphickey --output orion_%j.out --error orion_%j.err --chdir /scratch/anthonyy/reentry/orion/cases/m1.5_aoa50 /scratch/anthonyy/reentry/orion/config/run.sh /scratch/anthonyy/reentry/orion/config/generated/m1.5_aoa50.cfg --export=NONE --get-user-env --job-name m1.5_aoa50 --nodes 2 --ntasks-per-node 64 --cpus-per-task 1 --mem 0 --time 18:00:00 --account rrg-jphickey --output orion_%j.out --error orion_%j.err --chdir /scratch/anthonyy/reentry/orion/cases/m1.5_aoa50 /scratch/anthonyy/reentry/orion/config/run.sh /scratch/anthonyy/reentry/orion/config/generated/m1.5_aoa50.cfg
   WorkDir=/scratch/anthonyy/reentry/orion/cases/m1.5_aoa50
   Comment=/opt/slurm/bin/sbatch --export=NONE --get-user-env --job-name m1.5_aoa50 --nodes 2 --ntasks-per-node 64 --cpus-per-task 1 --mem 0 --time 18:00:00 --account rrg-jphickey --output orion_%j.out --error orion_%j.err --chdir /scratch/anthonyy/reentry/orion/cases/m1.5_aoa50 /scratch/anthonyy/reentry/orion/config/run.sh /scratch/anthonyy/reentry/orion/config/generated/m1.5_aoa50.cfg
   StdErr=/scratch/anthonyy/reentry/orion/cases/m1.5_aoa50/orion_1228487.err
   StdIn=/dev/null
   StdOut=/scratch/anthonyy/reentry/orion/cases/m1.5_aoa50/orion_1228487.out
   TresPerTask=cpu=1

sacct -j 1228487
JobID           JobName    Account    Elapsed  MaxVMSize     MaxRSS  SystemCPU    UserCPU ExitCode 
------------ ---------- ---------- ---------- ---------- ---------- ---------- ---------- -------- 
1228487      m1.5_aoa50 rrg-jphic+   12:16:57                         00:00:00   00:00:00      0:0 
1228487.bat+      batch rrg-jphic+   12:16:57                         00:00:00   00:00:00      0:0 
1228487.ext+     extern rrg-jphic+   12:16:57                         00:00:00   00:00:00      0:0 
1228487.0       SU2_CFD rrg-jphic+   12:16:52                         00:00:00   00:00:00      0:0 

