Nodes:  tri[0324,0879]
Tasks:  128
NPN:    64
Config: /scratch/anthonyy/reentry/orion/config/generated/m3_aoa24.cfg

-------------------------------------------------------------------------
|    ___ _   _ ___                                                      |
|   / __| | | |_  )   Release 7.5.1 "Blackbird"                         |
|   \__ \ |_| |/ /                                                      |
|   |___/\___//___|   Suite (Computational Fluid Dynamics Code)         |
|                                                                       |
-------------------------------------------------------------------------
| SU2 Project Website: https://su2code.github.io                        |
|                                                                       |
| The SU2 Project is maintained by the SU2 Foundation                   |
| (http://su2foundation.org)                                            |
-------------------------------------------------------------------------
| Copyright 2012-2023, SU2 Contributors                                 |
|                                                                       |
| SU2 is free software; you can redistribute it and/or                  |
| modify it under the terms of the GNU Lesser General Public            |
| License as published by the Free Software Foundation; either          |
| version 2.1 of the License, or (at your option) any later version.    |
|                                                                       |
| SU2 is distributed in the hope that it will be useful,                |
| but WITHOUT ANY WARRANTY; without even the implied warranty of        |
| MERCHANTABILITY or FITNESS FOR A PARTICULAR PURPOSE. See the GNU      |
| Lesser General Public License for more details.                       |
|                                                                       |
| You should have received a copy of the GNU Lesser General Public      |
| License along with SU2. If not, see <http://www.gnu.org/licenses/>.   |
-------------------------------------------------------------------------

Parsing config file for zone 0

----------------- Physical Case Definition ( Zone 0 ) -------------------
Compressible RANS equations.
Turbulence model: Spalart-Allmaras-noft2
Hybrid RANS/LES: No Hybrid RANS/LES
Mach number: 3.
Angle of attack (AoA): 24 deg, and angle of sideslip (AoS): 0 deg.
Reynolds number: 3.43114e+08. Reference length 5.
No restart solution, use the values at infinity (freestream).
Non-Dimensional simulation (V=1.0, Rho=1.0, T=1.0 at the farfield).
The reference area will be computed using y(2D) or z(3D) projection.
The semi-span will be computed using the max y(3D) value.
The reference length is 0.64607 m.
Reference origin for moment evaluation is (0.25, 0, 0).
Surface(s) where the force coefficients are evaluated: ORION_SURFACE.

Input mesh file name: ../../mesh/fine.su2

--------------- Space Numerical Integration ( Zone 0 ) ------------------
Jameson-Schmidt-Turkel scheme (2nd order in space) for the flow inviscid terms.
JST viscous coefficients (2nd & 4th): 0.5, 0.02.
The method includes a grid stretching correction (p = 0.3).
Scalar upwind solver for the turbulence model.
First order integration in space.
Average of gradients with correction (viscous flow terms).
Average of gradients with correction (viscous turbulence terms).
Gradient for upwind reconstruction: Green-Gauss.
Gradient for viscous and source terms: Green-Gauss.

--------------- Time Numerical Integration  ( Zone 0 ) ------------------
Local time stepping (steady state simulation).
Euler implicit method for the flow equations.
FGMRES is used for solving the linear system.
Using a ILU(0) preconditioning.
Convergence criteria of the linear solver: 1e-06.
Max number of linear iterations: 100.
CFL adaptation. Factor down: 0.5, factor up: 1.2,
                lower limit: 0.1, upper limit: 3,
                acceptable linear residual: 0.001.
Courant-Friedrichs-Lewy number:        1
Euler implicit time integration for the turbulence model.

------------------ Convergence Criteria  ( Zone 0 ) ---------------------
Maximum number of solver subiterations: 999999.
Begin convergence monitoring at iteration 5.
Residual minimum value: 1e-8.
Cauchy series min. value: 1e-10.
Number of Cauchy elements: 100.
Begin windowed time average at iteration 0.

-------------------- Output Information ( Zone 0 ) ----------------------
File writing frequency: 
+------------------------------------+
|                     File| Frequency|
+------------------------------------+
|                  RESTART|       150|
|                 PARAVIEW|       150|
|         SURFACE_PARAVIEW|       150|
+------------------------------------+
Writing the convergence history file every 1 inner iterations.
Writing the screen convergence history every 1 inner iterations.
The tabular file format is CSV (.csv).
Convergence history file name: history.
Forces breakdown file name: forces_breakdown.dat.
Surface file name: surface_flow.
Volume file name: flow.
Restart file name: restart_flow.

------------- Config File Boundary Information ( Zone 0 ) ---------------
+-----------------------------------------------------------------------+
|                        Marker Type|                        Marker Name|
+-----------------------------------------------------------------------+
|                          Far-field|                           FARFIELD|
+-----------------------------------------------------------------------+
|                     Heat flux wall|                      ORION_SURFACE|
+-----------------------------------------------------------------------+

-------------------- Output Preprocessing ( Zone 0 ) --------------------

WARNING: SURFACE_PRESSURE_DROP can only be computed for at least 2 surfaces (outlet, inlet, ...)

Screen output fields: INNER_ITER, WALL_TIME, RMS_DENSITY, RMS_MOMENTUM-X, RMS_MOMENTUM-Y, RMS_MOMENTUM-Z, RMS_ENERGY, RMS_NU_TILDE, DRAG
History output group(s): ITER, RMS_RES
Convergence field(s): RMS_DENSITY
Warning: No (valid) fields chosen for time convergence monitoring. Time convergence monitoring inactive.
Volume output fields: MACH, PRESSURE, TEMPERATURE, DENSITY, HEAT_FLUX, Y_PLUS, COORDINATES, SOLUTION

------------------- Geometry Preprocessing ( Zone 0 ) -------------------
Three dimensional problem.
62211324 grid points before partitioning.
190879888 volume elements before partitioning.
2 surface markers.
4104 boundary elements in index 0 (Marker = FARFIELD).
1824836 boundary elements in index 1 (Marker = ORION_SURFACE).
Executing the partitioning functions.
Building the graph adjacency structure.
Calling ParMETIS... graph partitioning complete (4959327 edge cuts).
Distributing ParMETIS coloring.
Rebalancing vertices.
Rebalancing volume element connectivity.
Rebalancing markers and surface elements.
66952290 vertices including ghost points. 
197997438 interior elements including halo cells. 
103171259 tetrahedra.
94500655 prisms.
325524 pyramids.
Establishing MPI communication patterns.
Setting point connectivity.
Renumbering points (Reverse Cuthill McKee Ordering).
Recomputing point connectivity.
Setting element connectivity.
Checking the numerical grid orientation.
All volume elements are correctly orientend.
All surface elements are correctly orientend.
Identifying edges and vertices.
Setting the control volume structure.
Volume of the computational grid: 535693.
Searching for the closest normal neighbors to the surfaces.
Storing a mapping from global to local point index.
Compute the surface curvature.
Max K: 132.896. Mean K: 3.9104. Standard deviation K: 7.49569.
Checking for periodicity.
Computing mesh quality statistics for the dual control volumes.
+--------------------------------------------------------------+
|           Mesh Quality Metric|        Minimum|        Maximum|
+--------------------------------------------------------------+
|    Orthogonality Angle (deg.)|        53.0661|             90|
|     CV Face Area Aspect Ratio|        1.01143|        75298.5|
|           CV Sub-Volume Ratio|        1.00029|        45.0258|
+--------------------------------------------------------------+
Finding max control volume width.
Communicating number of neighbors.
Reference area = 11.531 m^2.
Semi-span length = 2.49999 m.
Wetted area = 57.9072 m^2.
Area projection in the x-plane = 19.6343 m^2, y-plane = 11.531 m^2, z-plane = 11.531 m^2.
Max. coordinate in the x-direction = 2.575 m, y-direction = 2.49999 m, z-direction = 2.49999 m.
Min. coordinate in the x-direction = -0.71 m, y-direction = -2.49999 m, z-direction = -2.5 m.
Computing wall distances.

-------------------- Solver Preprocessing ( Zone 0 ) --------------------
Viscous flow: Computing pressure using the ideal gas law
based on the free-stream temperature and a density computed
from the Reynolds number.
Force coefficients computed using free-stream values.

-- Models:
+------------------------------------------------------------------------------+
|          Viscosity Model|        Conductivity Model|              Fluid Model|
+------------------------------------------------------------------------------+
|               SUTHERLAND|          CONSTANT_PRANDTL|             STANDARD_AIR|
+------------------------------------------------------------------------------+
-- Fluid properties:
+------------------------------------------------------------------------------+
|                  Name|    Dim. value|    Ref. value|      Unit|Non-dim. value|
+------------------------------------------------------------------------------+
|        Ref. Viscosity|     1.716e-05|       1227.87|   N.s/m^2|   1.39755e-08|
|      Sutherland Temp.|        273.15|        288.15|         K|      0.947944|
|     Sutherland Const.|         110.4|        288.15|         K|      0.383134|
+------------------------------------------------------------------------------+
|        Prandtl (Lam.)|             -|             -|         -|          0.72|
|       Prandtl (Turb.)|             -|             -|         -|           0.9|
+------------------------------------------------------------------------------+
|          Gas Constant|       287.058|       3616.93|  N.m/kg.K|     0.0793651|
|      Spec. Heat Ratio|             -|             -|         -|           1.4|
+------------------------------------------------------------------------------+
-- Initial and free-stream conditions:
+------------------------------------------------------------------------------+
|                  Name|    Dim. value|    Ref. value|      Unit|Non-dim. value|
+------------------------------------------------------------------------------+
|       Static Pressure|       99485.6|   1.25352e+06|        Pa|     0.0793651|
|               Density|       1.20274|       1.20274|    kg/m^3|             1|
|           Temperature|        288.15|        288.15|         K|             1|
|          Total Energy|        727899|   1.04222e+06|   m^2/s^2|      0.698413|
|            Velocity-X|        932.63|       1020.89|       m/s|      0.913545|
|            Velocity-Y|             0|       1020.89|       m/s|             0|
|            Velocity-Z|       415.234|       1020.89|       m/s|      0.406737|
|    Velocity Magnitude|       1020.89|       1020.89|       m/s|             1|
+------------------------------------------------------------------------------+
|             Viscosity|    1.7893e-05|       1227.87|   N.s/m^2|   1.45724e-08|
|          Conductivity|             -|   4.44111e+06|   W/m^2.K|             -|
|     Turb. Kin. Energy|       3908.32|   1.04222e+06|   m^2/s^2|       0.00375|
|     Spec. Dissipation|   2.62712e+07|       1020.89|       1/s|       25733.6|
+------------------------------------------------------------------------------+
|           Mach Number|             -|             -|         -|             3|
|       Reynolds Number|             -|             -|         -|   3.43114e+08|
+------------------------------------------------------------------------------+
Initialize Jacobian structure (Navier-Stokes). MG level: 0.
Initialize Jacobian structure (SA model).

------------------- Numerics Preprocessing ( Zone 0 ) -------------------

----------------- Integration Preprocessing ( Zone 0 ) ------------------

------------------- Iteration Preprocessing ( Zone 0 ) ------------------
Euler/Navier-Stokes/RANS fluid iteration.

------------------------------ Begin Solver -----------------------------

Simulation Run using the Single-zone Driver
WARNING: SU2 was not compiled for an AVX-capable architecture. Performance could be better,
         see https://su2code.github.io/docs_v7/Build-SU2-Linux-MacOS/#compiler-optimizations
+--------------------------------------------------------------------------------------------------------------------+
|  Inner_Iter|   Time(sec)|    rms[Rho]|   rms[RhoU]|   rms[RhoV]|   rms[RhoW]|   rms[RhoE]|     rms[nu]|          CD|
+--------------------------------------------------------------------------------------------------------------------+
|           0|  8.9582e+00|   -5.269124|  -15.983887|  -17.061926|  -16.327224|   -5.378269|  -12.793587|    0.746239|
|           1|  7.9927e+00|   -5.416796|   -5.487020|   -6.442774|   -5.789840|   -5.533669|  -12.771557|    1.051979|
|           2|  7.5260e+00|   -5.424052|   -5.555781|   -6.523162|   -5.830651|   -5.526452|  -12.973882|    1.370898|
|           3|  7.2833e+00|   -5.419881|   -5.607366|   -6.533650|   -5.856849|   -5.511400|  -13.086706|    1.715048|
|           4|  7.2241e+00|   -5.411599|   -5.664064|   -6.500194|   -5.886021|   -5.494185|  -13.166239|    2.099329|
|           5|  7.2700e+00|   -5.404497|   -5.734906|   -6.451180|   -5.924564|   -5.479751|  -13.225521|    2.531489|
|           6|  7.3671e+00|   -5.402685|   -5.816898|   -6.395471|   -5.966808|   -5.472871|  -13.267436|    3.009328|
|           7|  7.4453e+00|   -5.410294|   -5.878141|   -6.326169|   -5.989508|   -5.478747|  -13.286240|    3.505621|
|           8|  7.5618e+00|   -5.434881|   -5.870397|   -6.244080|   -5.978062|   -5.505362|  -13.277755|    4.002464|
|           9|  7.6603e+00|   -5.474662|   -5.807819|   -6.163449|   -5.950573|   -5.548767|  -13.254244|    4.418743|
|          10|  7.7845e+00|   -5.510151|   -5.736672|   -6.096657|   -5.915685|   -5.585727|  -13.226150|    4.632484|
|          11|  7.9122e+00|   -5.498490|   -5.682991|   -6.049814|   -5.873430|   -5.562227|  -13.207467|    4.525723|
|          12|  8.0293e+00|   -5.442238|   -5.665407|   -6.022418|   -5.819159|   -5.487050|  -13.192047|    4.104499|
|          13|  8.0802e+00|   -5.385854|   -5.692338|   -6.001067|   -5.767872|   -5.417965|  -13.181268|    3.488972|
|          14|  8.1520e+00|   -5.349953|   -5.752840|   -5.974496|   -5.738896|   -5.376051|  -13.172343|    2.869923|
|          15|  8.2132e+00|   -5.339400|   -5.797145|   -5.948714|   -5.738950|   -5.363889|  -13.152829|    2.384103|
|          16|  8.2670e+00|   -5.353278|   -5.779924|   -5.939405|   -5.761207|   -5.378890|  -13.121848|    2.099414|
|          17|  8.3142e+00|   -5.383513|   -5.746698|   -5.951167|   -5.788286|   -5.412176|  -13.087310|    2.043822|
|          18|  8.3506e+00|   -5.417365|   -5.735790|   -5.974188|   -5.808601|   -5.452011|  -13.065648|    2.175794|
|          19|  8.3856e+00|   -5.439005|   -5.747777|   -5.995421|   -5.820084|   -5.481054|  -13.060989|    2.410167|
|          20|  8.4178e+00|   -5.444502|   -5.776789|   -6.010593|   -5.826488|   -5.488831|  -13.063127|    2.665891|
|          21|  8.4472e+00|   -5.440824|   -5.808114|   -6.021284|   -5.835074|   -5.482303|  -13.056774|    2.882291|
|          22|  8.4752e+00|   -5.444985|   -5.828704|   -6.033914|   -5.842789|   -5.486572|  -13.044108|    3.028211|
|          23|  8.4977e+00|   -5.457597|   -5.844463|   -6.045011|   -5.845388|   -5.502010|  -13.029524|    3.094471|
|          24|  8.5176e+00|   -5.467200|   -5.858466|   -6.049063|   -5.843490|   -5.514593|  -13.011803|    3.095051|
|          25|  8.5374e+00|   -5.472960|   -5.860046|   -6.044603|   -5.838128|   -5.524706|  -12.995107|    3.062228|
|          26|  8.5607e+00|   -5.471557|   -5.841072|   -6.033842|   -5.831624|   -5.525793|  -12.983503|    3.032696|
|          27|  8.5816e+00|   -5.463543|   -5.824310|   -6.024803|   -5.828327|   -5.515520|  -12.976725|    3.028731|
|          28|  8.5985e+00|   -5.451657|   -5.821081|   -6.021225|   -5.827314|   -5.499375|  -12.971134|    3.052297|
|          29|  8.6152e+00|   -5.444376|   -5.828809|   -6.023870|   -5.827171|   -5.489250|  -12.962807|    3.091490|
|          30|  8.6267e+00|   -5.443307|   -5.842472|   -6.028016|   -5.826181|   -5.486479|  -12.954554|    3.129648|
|          31|  8.6428e+00|   -5.447263|   -5.852957|   -6.029779|   -5.824860|   -5.490580|  -12.943194|    3.153441|
|          32|  8.6601e+00|   -5.453808|   -5.849434|   -6.027102|   -5.822750|   -5.500314|  -12.927301|    3.157325|
|          33|  8.6761e+00|   -5.457243|   -5.828640|   -6.021275|   -5.821352|   -5.507281|  -12.912518|    3.144247|
|          34|  8.6911e+00|   -5.453736|   -5.809133|   -6.016303|   -5.819584|   -5.503303|  -12.906637|    3.123222|
|          35|  8.7044e+00|   -5.444009|   -5.805231|   -6.015224|   -5.818535|   -5.490032|  -12.907086|    3.104764|
|          36|  8.7172e+00|   -5.436139|   -5.814194|   -6.019111|   -5.817901|   -5.479100|  -12.904693|    3.096091|
|          37|  8.7283e+00|   -5.435035|   -5.826296|   -6.024319|   -5.817374|   -5.476103|  -12.902248|    3.098895|
|          38|  8.7440e+00|   -5.440406|   -5.830163|   -6.027087|   -5.816583|   -5.481889|  -12.896246|    3.110066|
|          39|  8.7551e+00|   -5.448205|   -5.817046|   -6.025544|   -5.814986|   -5.493324|  -12.879437|    3.124197|
|          40|  8.7645e+00|   -5.449966|   -5.786377|   -6.019775|   -5.810404|   -5.498456|  -12.861489|    3.136360|
|          41|  8.7738e+00|   -5.442444|   -5.755097|   -6.014127|   -5.803171|   -5.490072|  -12.851680|    3.143943|
|          42|  8.7869e+00|   -5.428479|   -5.736897|   -6.012759|   -5.795293|   -5.472345|  -12.849472|    3.146957|
|          43|  8.7975e+00|   -5.416031|   -5.725326|   -6.015143|   -5.787764|   -5.456264|  -12.842013|    3.147213|
|          44|  8.8055e+00|   -5.409990|   -5.709027|   -6.018173|   -5.780520|   -5.447410|  -12.833754|    3.147023|
|          45|  8.8118e+00|   -5.410298|   -5.683443|   -6.019789|   -5.772115|   -5.447293|  -12.822754|    3.148024|
|          46|  8.8196e+00|   -5.410923|   -5.648115|   -6.016746|   -5.759555|   -5.450405|  -12.801884|    3.150648|
|          47|  8.8253e+00|   -5.403995|   -5.606277|   -6.008750|   -5.742684|   -5.445756|  -12.777651|    3.154341|
|          48|  8.8293e+00|   -5.387902|   -5.566811|   -6.000803|   -5.723393|   -5.428994|  -12.759393|    3.158206|
|          49|  8.8343e+00|   -5.366879|   -5.535595|   -5.996418|   -5.704777|   -5.405456|  -12.748339|    3.161592|
|          50|  8.8426e+00|   -5.347727|   -5.509293|   -5.994778|   -5.688350|   -5.384068|  -12.735650|    3.164349|
|          51|  8.8471e+00|   -5.334436|   -5.483329|   -5.993959|   -5.673347|   -5.369616|  -12.722702|    3.166716|
|          52|  8.8518e+00|   -5.326354|   -5.456688|   -5.992080|   -5.657708|   -5.362567|  -12.710607|    3.169015|
|          53|  8.8574e+00|   -5.318974|   -5.429605|   -5.985887|   -5.640545|   -5.358515|  -12.693431|    3.171368|
|          54|  8.8658e+00|   -5.307434|   -5.402876|   -5.975845|   -5.622771|   -5.350441|  -12.674056|    3.173624|
|          55|  8.8709e+00|   -5.291381|   -5.378951|   -5.966294|   -5.606232|   -5.336213|  -12.658603|    3.175507|
|          56|  8.8739e+00|   -5.273834|   -5.360089|   -5.960005|   -5.592618|   -5.319127|  -12.649045|    3.176861|
|          57|  8.8768e+00|   -5.258490|   -5.345393|   -5.956440|   -5.582006|   -5.304071|  -12.641449|    3.177815|
|          58|  8.8824e+00|   -5.247880|   -5.332599|   -5.954316|   -5.573161|   -5.294406|  -12.634787|    3.178745|
|          59|  8.8872e+00|   -5.241986|   -5.320680|   -5.951917|   -5.564686|   -5.290865|  -12.629709|    3.180070|
|          60|  8.8913e+00|   -5.238134|   -5.309370|   -5.946835|   -5.556082|   -5.290816|  -12.622493|    3.182011|
|          61|  8.8941e+00|   -5.232947|   -5.298587|   -5.939262|   -5.548297|   -5.289386|  -12.613293|    3.184447|
|          62|  8.8995e+00|   -5.225435|   -5.289144|   -5.932115|   -5.542204|   -5.284229|  -12.605039|    3.186959|
|          63|  8.9048e+00|   -5.216751|   -5.282506|   -5.927465|   -5.538071|   -5.276377|  -12.600403|    3.189047|
|          64|  8.9100e+00|   -5.208923|   -5.278693|   -5.925138|   -5.535620|   -5.268699|  -12.599098|    3.190390|
|          65|  8.9122e+00|   -5.204184|   -5.276323|   -5.924223|   -5.534074|   -5.264352|  -12.598466|    3.191020|
|          66|  8.9159e+00|   -5.203226|   -5.274331|   -5.923456|   -5.532430|   -5.264767|  -12.599358|    3.191305|
|          67|  8.9203e+00|   -5.204827|   -5.272320|   -5.921168|   -5.530881|   -5.269007|  -12.599468|    3.191763|
|          68|  8.9250e+00|   -5.206007|   -5.269990|   -5.916889|   -5.530072|   -5.273026|  -12.596804|    3.192798|
|          69|  8.9262e+00|   -5.204909|   -5.267730|   -5.912340|   -5.529930|   -5.273625|  -12.592941|    3.194511|
|          70|  8.9281e+00|   -5.201721|   -5.266881|   -5.909367|   -5.530346|   -5.270570|  -12.590521|    3.196660|
|          71|  8.9309e+00|   -5.197905|   -5.268105|   -5.908080|   -5.531340|   -5.265878|  -12.591285|    3.198794|
|          72|  8.9349e+00|   -5.195904|   -5.270479|   -5.907991|   -5.532604|   -5.263006|  -12.593356|    3.200483|
|          73|  8.9368e+00|   -5.197317|   -5.272833|   -5.908413|   -5.533957|   -5.264472|  -12.597269|    3.201523|
|          74|  8.9384e+00|   -5.201747|   -5.274617|   -5.907978|   -5.535654|   -5.270468|  -12.600898|    3.202023|
|          75|  8.9394e+00|   -5.206188|   -5.275488|   -5.905639|   -5.537451|   -5.277140|  -12.601189|    3.202329|
|          76|  8.9438e+00|   -5.208059|   -5.275716|   -5.902393|   -5.539044|   -5.280414|  -12.599041|    3.202846|
|          77|  8.9511e+00|   -5.206984|   -5.276652|   -5.899980|   -5.540406|   -5.279179|  -12.596441|    3.203838|
|          78|  8.9605e+00|   -5.204245|   -5.279398|   -5.898844|   -5.541827|   -5.274987|  -12.596367|    3.205316|
|          79|  8.9627e+00|   -5.202673|   -5.283428|   -5.898888|   -5.543800|   -5.271776|  -12.599148|    3.207055|
|          80|  8.9656e+00|   -5.204465|   -5.287387|   -5.899805|   -5.546436|   -5.272857|  -12.603915|    3.208718|
|          81|  8.9673e+00|   -5.209620|   -5.290503|   -5.900304|   -5.549152|   -5.278965|  -12.608968|    3.210026|
|          82|  8.9690e+00|   -5.215361|   -5.292394|   -5.899020|   -5.551413|   -5.286739|  -12.610730|    3.210886|
|          83|  8.9709e+00|   -5.218515|   -5.293336|   -5.896451|   -5.553074|   -5.291436|  -12.609076|    3.211416|
|          84|  8.9729e+00|   -5.218185|   -5.294516|   -5.894131|   -5.554141|   -5.291124|  -12.605611|    3.211870|
|          85|  8.9741e+00|   -5.215606|   -5.297348|   -5.892855|   -5.555370|   -5.287071|  -12.603958|    3.212505|
|          86|  8.9753e+00|   -5.213632|   -5.301732|   -5.892814|   -5.557571|   -5.283243|  -12.605915|    3.213459|
|          87|  8.9774e+00|   -5.214646|   -5.306264|   -5.893898|   -5.560407|   -5.283191|  -12.610031|    3.214700|
|          88|  8.9813e+00|   -5.219180|   -5.309864|   -5.895006|   -5.563019|   -5.288272|  -12.615299|    3.216055|
|          89|  8.9839e+00|   -5.225126|   -5.312142|   -5.894653|   -5.565031|   -5.296200|  -12.617777|    3.217306|
|          90|  8.9859e+00|   -5.228958|   -5.313284|   -5.892838|   -5.566324|   -5.301965|  -12.616396|    3.218298|
|          91|  8.9876e+00|   -5.229201|   -5.314222|   -5.890823|   -5.567174|   -5.302797|  -12.612532|    3.219004|
|          92|  8.9907e+00|   -5.226703|   -5.316513|   -5.889563|   -5.568233|   -5.299274|  -12.609197|    3.219526|
|          93|  8.9938e+00|   -5.223960|   -5.320605|   -5.889558|   -5.570054|   -5.294762|  -12.609306|    3.220032|
|          94|  8.9957e+00|   -5.223625|   -5.325321|   -5.890792|   -5.572386|   -5.293108|  -12.612313|    3.220670|
|          95|  8.9963e+00|   -5.226895|   -5.329267|   -5.892298|   -5.574609|   -5.296406|  -12.617335|    3.221500|
|          96|  8.9969e+00|   -5.232683|   -5.331859|   -5.892579|   -5.576340|   -5.303817|  -12.620873|    3.222477|
|          97|  8.9989e+00|   -5.237548|   -5.333132|   -5.891041|   -5.577612|   -5.310744|  -12.620678|    3.223481|
|          98|  9.0000e+00|   -5.239045|   -5.333784|   -5.888620|   -5.578535|   -5.313250|  -12.617377|    3.224382|
|          99|  9.0007e+00|   -5.237211|   -5.335262|   -5.886421|   -5.579252|   -5.310747|  -12.612921|    3.225103|
|         100|  9.0017e+00|   -5.234010|   -5.338608|   -5.885268|   -5.580270|   -5.305727|  -12.610806|    3.225651|
|         101|  9.0057e+00|   -5.232342|   -5.343192|   -5.885531|   -5.581887|   -5.302364|  -12.612093|    3.226104|
|         102|  9.0085e+00|   -5.234014|   -5.347326|   -5.886562|   -5.583734|   -5.303449|  -12.615796|    3.226566|
|         103|  9.0091e+00|   -5.239019|   -5.350035|   -5.886988|   -5.585451|   -5.309600|  -12.619677|    3.227116|
|         104|  8.9729e+00|   -5.244483|   -5.351238|   -5.885912|   -5.586878|   -5.317309|  -12.619992|    3.227158|
|         105|  8.9374e+00|   -5.243026|   -5.351281|   -5.884271|   -5.585531|   -5.315621|  -12.617991|    3.227207|
|         106|  8.9033e+00|   -5.241250|   -5.351365|   -5.882288|   -5.583886|   -5.313563|  -12.615617|    3.227265|
|         107|  8.8692e+00|   -5.239124|   -5.351498|   -5.879922|   -5.581908|   -5.311103|  -12.612836|    3.227335|
|         108|  8.8358e+00|   -5.236609|   -5.351687|   -5.877121|   -5.579554|   -5.308204|  -12.609633|    3.227418|
|         109|  8.8034e+00|   -5.233654|   -5.351934|   -5.873839|   -5.576783|   -5.304826|  -12.606041|    3.227518|
|         110|  8.7762e+00|   -5.230254|   -5.352215|   -5.870074|   -5.573588|   -5.300998|  -12.602171|    3.227636|
|         111|  8.7491e+00|   -5.226439|   -5.352451|   -5.865855|   -5.570002|   -5.296825|  -12.598255|    3.227778|
|         112|  8.7222e+00|   -5.222359|   -5.352495|   -5.861340|   -5.566166|   -5.292592|  -12.594678|    3.227947|
|         113|  8.6992e+00|   -5.218379|   -5.352086|   -5.856852|   -5.562426|   -5.288858|  -12.591973|    3.228152|
|         114|  8.6769e+00|   -5.215167|   -5.350850|   -5.852886|   -5.559410|   -5.286565|  -12.590686|    3.228398|
|         115|  8.6591e+00|   -5.213610|   -5.348502|   -5.850020|   -5.557993|   -5.286709|  -12.591219|    3.228697|
|         116|  8.6414e+00|   -5.214588|   -5.345116|   -5.848496|   -5.559095|   -5.289863|  -12.592808|    3.229059|
|         117|  8.6279e+00|   -5.218215|   -5.341408|   -5.847832|   -5.562960|   -5.295215|  -12.592189|    3.229495|
|         118|  8.6193e+00|   -5.222930|   -5.338548|   -5.846450|   -5.568094|   -5.299814|  -12.585349|    3.230008|
|         119|  8.6122e+00|   -5.225429|   -5.337506|   -5.841711|   -5.570746|   -5.299588|  -12.572114|    3.230584|
|         120|  8.6080e+00|   -5.219967|   -5.338588|   -5.831102|   -5.565550|   -5.289322|  -12.559875|    3.231177|
|         121|  8.6048e+00|   -5.208502|   -5.341623|   -5.819319|   -5.555074|   -5.273251|  -12.560992|    3.231696|
|         122|  8.6055e+00|   -5.201529|   -5.346002|   -5.815831|   -5.549808|   -5.264557|  -12.572889|    3.232043|
|         123|  8.6109e+00|   -5.202985|   -5.351661|   -5.821919|   -5.552003|   -5.267248|  -12.582284|    3.232226|
|         124|  8.6158e+00|   -5.208437|   -5.358038|   -5.830889|   -5.556641|   -5.275158|  -12.587514|    3.232423|
|         125|  8.6201e+00|   -5.213823|   -5.363231|   -5.837762|   -5.561248|   -5.282721|  -12.592556|    3.232813|
|         126|  8.6254e+00|   -5.219138|   -5.366619|   -5.842280|   -5.566522|   -5.289434|  -12.596238|    3.233548|
|         127|  8.6299e+00|   -5.224677|   -5.367812|   -5.844361|   -5.572335|   -5.295343|  -12.598773|    3.234747|
|         128|  8.6345e+00|   -5.231806|   -5.367041|   -5.846129|   -5.579110|   -5.302910|  -12.601036|    3.236531|
|         129|  8.6372e+00|   -5.239039|   -5.365674|   -5.848491|   -5.585239|   -5.311632|  -12.601476|    3.239068|
|         130|  8.6407e+00|   -5.242158|   -5.365090|   -5.848869|   -5.587546|   -5.316136|  -12.597237|    3.242589|
|         131|  8.6452e+00|   -5.239051|   -5.365701|   -5.845526|   -5.585111|   -5.312330|  -12.590843|    3.247353|
|         132|  8.6493e+00|   -5.233511|   -5.367765|   -5.841611|   -5.581251|   -5.304861|  -12.589346|    3.253557|
|         133|  8.6532e+00|   -5.231093|   -5.370941|   -5.841296|   -5.579941|   -5.301703|  -12.591499|    3.261225|
|         134|  8.6568e+00|   -5.232148|   -5.373768|   -5.843349|   -5.581343|   -5.303321|  -12.592206|    3.270103|
|         135|  8.6607e+00|   -5.235053|   -5.375251|   -5.845555|   -5.584289|   -5.307287|  -12.590191|    3.279629|
|         136|  8.6607e+00|   -5.238402|   -5.375557|   -5.847141|   -5.587940|   -5.311963|  -12.588143|    3.288987|
|         137|  8.6604e+00|   -5.241247|   -5.375344|   -5.848093|   -5.591312|   -5.316534|  -12.586538|    3.297243|
|         138|  8.6602e+00|   -5.241632|   -5.374743|   -5.846870|   -5.592470|   -5.318274|  -12.583346|    3.303540|
|         139|  8.6606e+00|   -5.238529|   -5.375028|   -5.843571|   -5.589815|   -5.315040|  -12.577015|    3.307288|
|         140|  8.6613e+00|   -5.233629|   -5.377220|   -5.839664|   -5.585656|   -5.308394|  -12.573122|    3.308305|
|         141|  8.6615e+00|   -5.231455|   -5.380324|   -5.839074|   -5.584474|   -5.305060|  -12.575574|    3.306862|
|         142|  8.6621e+00|   -5.233449|   -5.382554|   -5.841641|   -5.586594|   -5.307628|  -12.578841|    3.303627|
|         143|  8.6626e+00|   -5.237243|   -5.383079|   -5.844228|   -5.590022|   -5.312950|  -12.578814|    3.299526|
|         144|  8.6626e+00|   -5.240261|   -5.382450|   -5.845449|   -5.593141|   -5.317757|  -12.577718|    3.295560|
|         145|  8.6618e+00|   -5.241270|   -5.381761|   -5.845167|   -5.594642|   -5.320460|  -12.574113|    3.292632|
|         146|  8.6616e+00|   -5.238699|   -5.381250|   -5.842516|   -5.593224|   -5.318383|  -12.569317|    3.291387|
|         147|  8.6605e+00|   -5.233934|   -5.382250|   -5.838711|   -5.588937|   -5.312838|  -12.563705|    3.292137|
|         148|  8.6598e+00|   -5.229272|   -5.384572|   -5.835424|   -5.585007|   -5.306616|  -12.560899|    3.294840|
|         149|  8.6631e+00|   -5.227966|   -5.386880|   -5.835359|   -5.584030|   -5.304801|  -12.562509|    3.299155|
|         150|  8.6631e+00|   -5.230388|   -5.387712|   -5.837671|   -5.585823|   -5.308402|  -12.563584|    3.304551|
+-----------------------------------------------------------------------+
|        File Writing Summary       |              Filename             |
+-----------------------------------------------------------------------+
|SU2 binary restart                 |restart_flow.dat                   |
|Paraview                           |flow.vtu                           |
|Paraview surface                   |surface_flow.vtu                   |
+-----------------------------------------------------------------------+
+--------------------------------------------------------------------------------------------------------------------+
|  Inner_Iter|   Time(sec)|    rms[Rho]|   rms[RhoU]|   rms[RhoV]|   rms[RhoW]|   rms[RhoE]|     rms[nu]|          CD|
+--------------------------------------------------------------------------------------------------------------------+
|         151|  8.8071e+00|   -5.233800|   -5.386644|   -5.839579|   -5.588656|   -5.313714|  -12.562452|    3.310424|
|         152|  8.8089e+00|   -5.235774|   -5.384925|   -5.840061|   -5.590777|   -5.317669|  -12.559389|    3.316209|
|         153|  8.8092e+00|   -5.234778|   -5.383435|   -5.838581|   -5.590748|   -5.317789|  -12.553732|    3.321461|
|         154|  8.8086e+00|   -5.230653|   -5.382482|   -5.835340|   -5.587799|   -5.313420|  -12.548822|    3.325894|
|         155|  8.8091e+00|   -5.225464|   -5.383121|   -5.831462|   -5.582727|   -5.307239|  -12.543574|    3.329383|
|         156|  8.8089e+00|   -5.220646|   -5.384715|   -5.828186|   -5.577988|   -5.300935|  -12.540577|    3.331935|
|         157|  8.8078e+00|   -5.218876|   -5.386091|   -5.827704|   -5.575615|   -5.298760|  -12.540535|    3.333646|
|         158|  8.8057e+00|   -5.220508|   -5.385891|   -5.829234|   -5.576012|   -5.301476|  -12.540489|    3.334653|
|         159|  8.8050e+00|   -5.223447|   -5.383822|   -5.830739|   -5.578049|   -5.306268|  -12.539076|    3.335101|
|         160|  8.8057e+00|   -5.225169|   -5.381272|   -5.830974|   -5.579993|   -5.309897|  -12.534861|    3.335116|
|         161|  8.8062e+00|   -5.223778|   -5.378879|   -5.829278|   -5.580092|   -5.309316|  -12.529021|    3.334794|
|         162|  8.8063e+00|   -5.219759|   -5.377274|   -5.825991|   -5.576723|   -5.304975|  -12.523548|    3.334205|
|         163|  8.8027e+00|   -5.214302|   -5.377200|   -5.821546|   -5.570820|   -5.298318|  -12.517779|    3.333397|
|         164|  8.7991e+00|   -5.209011|   -5.378079|   -5.817693|   -5.565080|   -5.291383|  -12.514931|    3.332406|
|         165|  8.7956e+00|   -5.206283|   -5.378905|   -5.816322|   -5.561001|   -5.288086|  -12.513757|    3.331262|
|         166|  8.7914e+00|   -5.206206|   -5.378354|   -5.816364|   -5.558867|   -5.288497|  -12.512641|    3.329992|
|         167|  8.7889e+00|   -5.207753|   -5.375947|   -5.816677|   -5.558763|   -5.291159|  -12.511334|    3.328623|
|         168|  8.7862e+00|   -5.209401|   -5.373006|   -5.816778|   -5.560270|   -5.294258|  -12.508254|    3.327179|
|         169|  8.7825e+00|   -5.209537|   -5.370002|   -5.815994|   -5.562140|   -5.295492|  -12.504696|    3.325681|
|         170|  8.7793e+00|   -5.207487|   -5.367457|   -5.813524|   -5.560935|   -5.293923|  -12.499432|    3.324145|
|         171|  8.7763e+00|   -5.202415|   -5.366095|   -5.808204|   -5.555042|   -5.287687|  -12.491935|    3.322583|
|         172|  8.7737e+00|   -5.196455|   -5.365809|   -5.802734|   -5.548291|   -5.279574|  -12.488607|    3.321006|
|         173|  8.7709e+00|   -5.192980|   -5.365940|   -5.800231|   -5.543469|   -5.275345|  -12.488534|    3.319421|
|         174|  8.7681e+00|   -5.191413|   -5.365211|   -5.798876|   -5.539769|   -5.274023|  -12.486793|    3.317834|
|         175|  8.7660e+00|   -5.190314|   -5.362623|   -5.796567|   -5.536438|   -5.272910|  -12.483982|    3.316250|
|         176|  8.7631e+00|   -5.189644|   -5.359016|   -5.794067|   -5.534310|   -5.272034|  -12.480962|    3.314671|
|         177|  8.7603e+00|   -5.189592|   -5.355110|   -5.792411|   -5.534664|   -5.272034|  -12.479440|    3.313098|
|         178|  8.7571e+00|   -5.190310|   -5.350953|   -5.791463|   -5.536381|   -5.273849|  -12.478735|    3.311531|
|         179|  8.7543e+00|   -5.188730|   -5.346784|   -5.787795|   -5.534534|   -5.272742|  -12.472435|    3.309968|
|         180|  8.7518e+00|   -5.182430|   -5.342721|   -5.779775|   -5.527345|   -5.263843|  -12.463853|    3.308409|
|         181|  8.7489e+00|   -5.175875|   -5.338836|   -5.772470|   -5.519073|   -5.254238|  -12.461224|    3.306855|
|         182|  8.7462e+00|   -5.172515|   -5.334559|   -5.768551|   -5.512987|   -5.249958|  -12.462107|    3.305310|
|         183|  8.7434e+00|   -5.170100|   -5.328735|   -5.764780|   -5.507873|   -5.247286|  -12.460178|    3.303778|
|         184|  8.7409e+00|   -5.166100|   -5.320706|   -5.758414|   -5.501591|   -5.241627|  -12.454873|    3.302267|
|         185|  8.7385e+00|   -5.160655|   -5.310973|   -5.750270|   -5.494161|   -5.232957|  -12.449234|    3.300782|
|         186|  8.7364e+00|   -5.156011|   -5.300050|   -5.742837|   -5.487310|   -5.225151|  -12.447190|    3.299326|
|         187|  8.7338e+00|   -5.153684|   -5.287992|   -5.736967|   -5.481622|   -5.221222|  -12.447116|    3.297901|
|         188|  8.7307e+00|   -5.150035|   -5.274525|   -5.728974|   -5.474126|   -5.215873|  -12.442567|    3.296504|
|         189|  8.7291e+00|   -5.141211|   -5.259474|   -5.715921|   -5.462268|   -5.202745|  -12.432456|    3.295131|
|         190|  8.7246e+00|   -5.129772|   -5.243054|   -5.700586|   -5.447106|   -5.185648|  -12.425436|    3.293778|
|         191|  8.7205e+00|   -5.119983|   -5.225497|   -5.686665|   -5.431273|   -5.171406|  -12.422891|    3.292445|
|         192|  8.7152e+00|   -5.111268|   -5.206557|   -5.673288|   -5.415530|   -5.159348|  -12.420187|    3.291132|
|         193|  8.7098e+00|   -5.100671|   -5.186019|   -5.657757|   -5.399024|   -5.145130|  -12.413203|    3.289845|
|         194|  8.7045e+00|   -5.086806|   -5.163959|   -5.639038|   -5.381078|   -5.126686|  -12.403041|    3.288590|
|         195|  8.6993e+00|   -5.071192|   -5.140883|   -5.618644|   -5.361875|   -5.106370|  -12.394204|    3.287377|
|         196|  8.6944e+00|   -5.056249|   -5.117346|   -5.598589|   -5.342109|   -5.087898|  -12.388155|    3.286211|
|         197|  8.6898e+00|   -5.041597|   -5.093562|   -5.578746|   -5.321746|   -5.071161|  -12.381539|    3.285095|
|         198|  8.6852e+00|   -5.024431|   -5.069439|   -5.557194|   -5.300020|   -5.052516|  -12.370471|    3.284029|
|         199|  8.6800e+00|   -5.003812|   -5.044990|   -5.533344|   -5.276817|   -5.030517|  -12.355823|    3.283008|
|         200|  8.6749e+00|   -4.981742|   -5.020515|   -5.508676|   -5.252901|   -5.007677|  -12.341999|    3.282026|
|         201|  8.6705e+00|   -4.960100|   -4.996321|   -5.484626|   -5.229173|   -4.986592|  -12.330178|    3.281074|
|         202|  8.6513e+00|   -4.938772|   -4.972531|   -5.461349|   -5.206078|   -4.967227|  -12.342185|    3.281046|
|         203|  8.6323e+00|   -4.937923|   -4.971856|   -5.460734|   -5.205373|   -4.966599|  -12.341373|    3.281013|
|         204|  8.6157e+00|   -4.936914|   -4.971048|   -5.459995|   -5.204530|   -4.965854|  -12.340407|    3.280974|
|         205|  8.5988e+00|   -4.935715|   -4.970081|   -5.459110|   -5.203524|   -4.964974|  -12.339261|    3.280926|
|         206|  8.5822e+00|   -4.934292|   -4.968924|   -5.458047|   -5.202326|   -4.963936|  -12.337902|    3.280869|
|         207|  8.5662e+00|   -4.932608|   -4.967541|   -5.456770|   -5.200899|   -4.962714|  -12.336291|    3.280801|
|         208|  8.5504e+00|   -4.930618|   -4.965887|   -5.455237|   -5.199204|   -4.961279|  -12.334383|    3.280719|
|         209|  8.5342e+00|   -4.928271|   -4.963909|   -5.453391|   -5.197191|   -4.959598|  -12.332124|    3.280620|
|         210|  8.5205e+00|   -4.925506|   -4.961544|   -5.451165|   -5.194803|   -4.957628|  -12.329448|    3.280501|
|         211|  8.5071e+00|   -4.922252|   -4.958712|   -5.448472|   -5.191972|   -4.955316|  -12.326274|    3.280358|
|         212|  8.4940e+00|   -4.918420|   -4.955316|   -5.445200|   -5.188615|   -4.952592|  -12.322496|    3.280186|
|         213|  8.4810e+00|   -4.913895|   -4.951232|   -5.441204|   -5.184628|   -4.949350|  -12.317970|    3.279977|
|         214|  8.4701e+00|   -4.908522|   -4.946305|   -5.436298|   -5.179875|   -4.945436|  -12.312493|    3.279725|
|         215|  8.4594e+00|   -4.902089|   -4.940329|   -5.430243|   -5.174172|   -4.940630|  -12.305798|    3.279419|
|         216|  8.4509e+00|   -4.894314|   -4.933048|   -5.422756|   -5.167256|   -4.934643|  -12.297558|    3.279047|
|         217|  8.4428e+00|   -4.884837|   -4.924142|   -5.413532|   -5.158759|   -4.927147|  -12.287462|    3.278595|
|         218|  8.4373e+00|   -4.873210|   -4.913236|   -5.402248|   -5.148177|   -4.917814|  -12.275178|    3.278050|
|         219|  8.4318e+00|   -4.858837|   -4.899906|   -5.388530|   -5.134863|   -4.906263|  -12.260270|    3.277397|
|         220|  8.4284e+00|   -4.840887|   -4.883685|   -5.371859|   -5.118123|   -4.891901|  -12.242163|    3.276622|
|         221|  8.4249e+00|   -4.818308|   -4.864068|   -5.351502|   -5.097408|   -4.873747|  -12.222615|    3.275770|
|         222|  8.4216e+00|   -4.792086|   -4.842144|   -5.328573|   -5.074163|   -4.852537|  -12.205073|    3.274944|
|         223|  8.4187e+00|   -4.765750|   -4.820976|   -5.306443|   -5.051819|   -4.831404|  -12.186520|    3.274133|
|         224|  8.4154e+00|   -4.740290|   -4.800807|   -5.285455|   -5.030670|   -4.811549|  -12.168541|    3.273320|
|         225|  8.4126e+00|   -4.716337|   -4.781813|   -5.265857|   -5.010798|   -4.793966|  -12.151505|    3.272490|
|         226|  8.4092e+00|   -4.693856|   -4.764093|   -5.247589|   -4.992117|   -4.778760|  -12.134609|    3.271631|
|         227|  8.4063e+00|   -4.672207|   -4.747622|   -5.230285|   -4.974452|   -4.765012|  -12.116907|    3.270733|
|         228|  8.4032e+00|   -4.650806|   -4.732287|   -5.213634|   -4.957674|   -4.751674|  -12.097886|    3.269795|
|         229|  8.4001e+00|   -4.629447|   -4.717923|   -5.197553|   -4.941722|   -4.738172|  -12.077965|    3.268824|
|         230|  8.3972e+00|   -4.608364|   -4.704391|   -5.182214|   -4.926580|   -4.724753|  -12.058281|    3.267829|
|         231|  8.3944e+00|   -4.587949|   -4.691600|   -5.167846|   -4.912230|   -4.712093|  -12.039496|    3.266823|
|         232|  8.3914e+00|   -4.568395|   -4.679456|   -5.154497|   -4.898609|   -4.700529|  -12.021479|    3.265816|
|         233|  8.3887e+00|   -4.549641|   -4.667848|   -5.142023|   -4.885626|   -4.689823|  -12.003906|    3.264816|
|         234|  8.3733e+00|   -4.531560|   -4.656693|   -5.130266|   -4.873207|   -4.679547|  -12.055265|    3.264787|
|         235|  8.3579e+00|   -4.530943|   -4.656377|   -5.130107|   -4.872867|   -4.679248|  -12.053803|    3.264752|
|         236|  8.3447e+00|   -4.530210|   -4.656003|   -5.129910|   -4.872461|   -4.678896|  -12.052057|    3.264711|
|         237|  8.3314e+00|   -4.529344|   -4.655563|   -5.129666|   -4.871979|   -4.678486|  -12.049976|    3.264661|
|         238|  8.3185e+00|   -4.528320|   -4.655047|   -5.129361|   -4.871407|   -4.678008|  -12.047497|    3.264600|
|         239|  8.3057e+00|   -4.527116|   -4.654444|   -5.128977|   -4.870728|   -4.677456|  -12.044553|    3.264528|
|         240|  8.2929e+00|   -4.525703|   -4.653742|   -5.128493|   -4.869926|   -4.676823|  -12.041064|    3.264440|
|         241|  8.2806e+00|   -4.524052|   -4.652930|   -5.127877|   -4.868980|   -4.676103|  -12.036943|    3.264335|
|         242|  8.2701e+00|   -4.522132|   -4.651997|   -5.127091|   -4.867865|   -4.675292|  -12.032097|    3.264208|
|         243|  8.2597e+00|   -4.519909|   -4.650928|   -5.126083|   -4.866555|   -4.674386|  -12.026422|    3.264054|
|         244|  8.2492e+00|   -4.517346|   -4.649709|   -5.124783|   -4.865018|   -4.673383|  -12.019811|    3.263869|
|         245|  8.2393e+00|   -4.514402|   -4.648321|   -5.123107|   -4.863211|   -4.672275|  -12.012149|    3.263644|
|         246|  8.2314e+00|   -4.511026|   -4.646731|   -5.120944|   -4.861079|   -4.671040|  -12.003314|    3.263373|
|         247|  8.2234e+00|   -4.507144|   -4.644882|   -5.118164|   -4.858542|   -4.669625|  -11.993166|    3.263043|
|         248|  8.2154e+00|   -4.502646|   -4.642669|   -5.114616|   -4.855484|   -4.667917|  -11.981536|    3.262641|
|         249|  8.2089e+00|   -4.497350|   -4.639907|   -5.110137|   -4.851728|   -4.665698|  -11.968214|    3.262150|
|         250|  8.2031e+00|   -4.490972|   -4.636290|   -5.104576|   -4.847015|   -4.662590|  -11.952960|    3.261546|
|         251|  8.1995e+00|   -4.483087|   -4.631362|   -5.097816|   -4.840989|   -4.658013|  -11.935549|    3.260797|
|         252|  8.1976e+00|   -4.473145|   -4.624538|   -5.089814|   -4.833212|   -4.651207|  -11.915884|    3.259863|
|         253|  8.1952e+00|   -4.460536|   -4.615221|   -5.080625|   -4.823238|   -4.641378|  -11.898172|    3.258768|
|         254|  8.1931e+00|   -4.445833|   -4.603921|   -5.071122|   -4.811611|   -4.628938|  -11.887564|    3.257648|
|         255|  8.1911e+00|   -4.431263|   -4.592680|   -5.062754|   -4.800179|   -4.616106|  -11.877393|    3.256519|
|         256|  8.1893e+00|   -4.417412|   -4.582051|   -5.055254|   -4.789362|   -4.603712|  -11.867817|    3.255401|
|         257|  8.1871e+00|   -4.404695|   -4.572366|   -5.048331|   -4.779430|   -4.592297|  -11.858873|    3.254320|
|         258|  8.1852e+00|   -4.393328|   -4.563786|   -5.041725|   -4.770488|   -4.582146|  -11.850489|    3.253297|
|         259|  8.1833e+00|   -4.383345|   -4.556331|   -5.035201|   -4.762478|   -4.573245|  -11.842490|    3.252342|
|         260|  8.1813e+00|   -4.374631|   -4.549918|   -5.028559|   -4.755241|   -4.565330|  -11.834672|    3.251445|
|         261|  8.1805e+00|   -4.366981|   -4.544397|   -5.021646|   -4.748545|   -4.558016|  -11.826937|    3.250569|
|         262|  8.1789e+00|   -4.360173|   -4.539579|   -5.014371|   -4.742129|   -4.550947|  -11.819302|    3.249653|
|         263|  8.1774e+00|   -4.354016|   -4.535255|   -5.006696|   -4.735784|   -4.543875|  -11.811825|    3.248606|
|         264|  8.1765e+00|   -4.348372|   -4.531220|   -4.998641|   -4.729369|   -4.536669|  -11.804624|    3.247315|
|         265|  8.1752e+00|   -4.343142|   -4.527286|   -4.990250|   -4.722804|   -4.529273|  -11.797758|    3.245651|
|         266|  8.1737e+00|   -4.338245|   -4.523310|   -4.981568|   -4.716041|   -4.521660|  -11.791250|    3.243483|
|         267|  8.1720e+00|   -4.333626|   -4.519206|   -4.972653|   -4.709095|   -4.513837|  -11.785107|    3.240683|
|         268|  8.1705e+00|   -4.329245|   -4.514928|   -4.963573|   -4.702043|   -4.505827|  -11.779290|    3.237142|
|         269|  8.1689e+00|   -4.325068|   -4.510477|   -4.954402|   -4.694968|   -4.497646|  -11.773753|    3.232776|
|         270|  8.1673e+00|   -4.321064|   -4.505886|   -4.945215|   -4.687942|   -4.489329|  -11.768409|    3.227540|
|         271|  8.1657e+00|   -4.317226|   -4.501238|   -4.936073|   -4.680991|   -4.480923|  -11.763210|    3.221426|
|         272|  8.1639e+00|   -4.313494|   -4.496617|   -4.926962|   -4.674105|   -4.472449|  -11.758136|    3.214467|
|         273|  8.1621e+00|   -4.309802|   -4.492074|   -4.917831|   -4.667273|   -4.463887|  -11.753172|    3.206736|
|         274|  8.1607e+00|   -4.306131|   -4.487634|   -4.908674|   -4.660553|   -4.455275|  -11.748355|    3.198342|
|         275|  8.1594e+00|   -4.302499|   -4.483310|   -4.899559|   -4.654039|   -4.446736|  -11.743699|    3.189423|
|         276|  8.1575e+00|   -4.298945|   -4.479127|   -4.890599|   -4.647811|   -4.438417|  -11.739205|    3.180137|
|         277|  8.1576e+00|   -4.295485|   -4.475125|   -4.881879|   -4.641914|   -4.430427|  -11.734824|    3.170657|
|         278|  8.1575e+00|   -4.292083|   -4.471334|   -4.873424|   -4.636348|   -4.422764|  -11.730451|    3.161156|
|         279|  8.1574e+00|   -4.288645|   -4.467756|   -4.865168|   -4.631019|   -4.415290|  -11.726045|    3.151809|
|         280|  8.1578e+00|   -4.285113|   -4.464396|   -4.857031|   -4.625874|   -4.407915|  -11.721653|    3.142778|
|         281|  8.1583e+00|   -4.281484|   -4.461243|   -4.848959|   -4.620903|   -4.400631|  -11.717332|    3.134208|
|         282|  8.1585e+00|   -4.277840|   -4.458278|   -4.840998|   -4.616144|   -4.393543|  -11.713138|    3.126228|
|         283|  8.1567e+00|   -4.274330|   -4.455487|   -4.833317|   -4.611675|   -4.386903|  -11.709252|    3.118941|
|         284|  8.1548e+00|   -4.271112|   -4.452885|   -4.826098|   -4.607577|   -4.380972|  -11.705836|    3.112424|
|         285|  8.1532e+00|   -4.268209|   -4.450534|   -4.819396|   -4.603842|   -4.375805|  -11.702744|    3.106728|
|         286|  8.1518e+00|   -4.265480|   -4.448500|   -4.813070|   -4.600377|   -4.371169|  -11.699627|    3.101872|
|         287|  8.1500e+00|   -4.262746|   -4.446804|   -4.806961|   -4.597071|   -4.366730|  -11.696225|    3.097845|
|         288|  8.1488e+00|   -4.259951|   -4.445381|   -4.801043|   -4.593888|   -4.362327|  -11.692768|    3.094607|
|         289|  8.1471e+00|   -4.257247|   -4.444125|   -4.795394|   -4.590872|   -4.358138|  -11.689848|    3.092081|
|         290|  8.1455e+00|   -4.254918|   -4.443027|   -4.790183|   -4.588136|   -4.354612|  -11.687689|    3.090163|
|         291|  8.1436e+00|   -4.253045|   -4.442158|   -4.785435|   -4.585738|   -4.351865|  -11.686019|    3.088722|
|         292|  8.1421e+00|   -4.251449|   -4.441598|   -4.781067|   -4.583607|   -4.349635|  -11.684290|    3.087602|
|         293|  8.1403e+00|   -4.249949|   -4.441315|   -4.777000|   -4.581700|   -4.347613|  -11.682202|    3.086637|
|         294|  8.1388e+00|   -4.248514|   -4.441204|   -4.773210|   -4.579986|   -4.345702|  -11.680130|    3.085650|
|         295|  8.1373e+00|   -4.247302|   -4.441250|   -4.769752|   -4.578475|   -4.344069|  -11.678430|    3.084474|
|         296|  8.1358e+00|   -4.246413|   -4.441490|   -4.766689|   -4.577174|   -4.342912|  -11.677061|    3.082951|
|         297|  8.1345e+00|   -4.245815|   -4.441969|   -4.763998|   -4.576066|   -4.342211|  -11.675770|    3.080948|
|         298|  8.1327e+00|   -4.245374|   -4.442676|   -4.761600|   -4.575075|   -4.341764|  -11.674350|    3.078361|
|         299|  8.1314e+00|   -4.244950|   -4.443543|   -4.759386|   -4.574152|   -4.341324|  -11.672760|    3.075122|
|         300|  8.1302e+00|   -4.244504|   -4.444524|   -4.757274|   -4.573265|   -4.340816|  -11.671150|    3.071196|
+-----------------------------------------------------------------------+
|        File Writing Summary       |              Filename             |
+-----------------------------------------------------------------------+
|SU2 binary restart                 |restart_flow.dat                   |
|Paraview                           |flow.vtu                           |
|Paraview surface                   |surface_flow.vtu                   |
+-----------------------------------------------------------------------+
+--------------------------------------------------------------------------------------------------------------------+
|  Inner_Iter|   Time(sec)|    rms[Rho]|   rms[RhoU]|   rms[RhoV]|   rms[RhoW]|   rms[RhoE]|     rms[nu]|          CD|
+--------------------------------------------------------------------------------------------------------------------+
|         301|  8.2015e+00|   -4.244116|   -4.445614|   -4.755221|   -4.572446|   -4.340341|  -11.669822|    3.066587|
|         302|  8.2008e+00|   -4.243911|   -4.446838|   -4.753278|   -4.571748|   -4.340066|  -11.668742|    3.061327|
|         303|  8.1994e+00|   -4.243954|   -4.448210|   -4.751487|   -4.571195|   -4.340067|  -11.667760|    3.055476|
|         304|  8.1981e+00|   -4.244299|   -4.449800|   -4.749951|   -4.570783|   -4.340382|  -11.666744|    3.049110|
|         305|  8.1962e+00|   -4.244901|   -4.451597|   -4.748692|   -4.570476|   -4.340953|  -11.665648|    3.042315|
|         306|  8.1945e+00|   -4.245667|   -4.453554|   -4.747684|   -4.570252|   -4.341689|  -11.664473|    3.035180|
|         307|  8.1927e+00|   -4.246530|   -4.455686|   -4.746840|   -4.570101|   -4.342495|  -11.663320|    3.027791|
|         308|  8.1913e+00|   -4.247443|   -4.457969|   -4.746077|   -4.570009|   -4.343303|  -11.662231|    3.020220|
|         309|  8.1894e+00|   -4.248385|   -4.460375|   -4.745352|   -4.569974|   -4.344098|  -11.661106|    3.012527|
|         310|  8.1876e+00|   -4.249367|   -4.462869|   -4.744657|   -4.569979|   -4.344905|  -11.659965|    3.004757|
|         311|  8.1859e+00|   -4.250444|   -4.465411|   -4.744037|   -4.570028|   -4.345785|  -11.658822|    2.996936|
|         312|  8.1842e+00|   -4.251672|   -4.467969|   -4.743482|   -4.570114|   -4.346821|  -11.657812|    2.989075|
|         313|  8.1824e+00|   -4.253093|   -4.470552|   -4.742984|   -4.570266|   -4.348059|  -11.656840|    2.981171|
|         314|  8.1808e+00|   -4.254652|   -4.473218|   -4.742503|   -4.570443|   -4.349438|  -11.655753|    2.973209|
|         315|  8.1792e+00|   -4.256198|   -4.475976|   -4.742033|   -4.570600|   -4.350835|  -11.654463|    2.965167|
|         316|  8.1778e+00|   -4.257716|   -4.478853|   -4.741615|   -4.570712|   -4.352155|  -11.653047|    2.957018|
|         317|  8.1764e+00|   -4.259216|   -4.481771|   -4.741282|   -4.570789|   -4.353398|  -11.651687|    2.948735|
|         318|  8.1746e+00|   -4.260750|   -4.484658|   -4.741032|   -4.570897|   -4.354631|  -11.650448|    2.940288|
|         319|  8.1727e+00|   -4.262379|   -4.487490|   -4.740880|   -4.571065|   -4.355963|  -11.649254|    2.931655|
|         320|  8.1718e+00|   -4.264113|   -4.490302|   -4.740811|   -4.571273|   -4.357430|  -11.647959|    2.922812|
|         321|  8.1706e+00|   -4.265911|   -4.493137|   -4.740765|   -4.571462|   -4.358989|  -11.646510|    2.913746|
|         322|  8.1692e+00|   -4.267707|   -4.495980|   -4.740695|   -4.571568|   -4.360535|  -11.644910|    2.904443|
|         323|  8.1675e+00|   -4.269451|   -4.498783|   -4.740612|   -4.571573|   -4.361981|  -11.643160|    2.894897|
|         324|  8.1657e+00|   -4.271180|   -4.501546|   -4.740544|   -4.571541|   -4.363389|  -11.641361|    2.885103|
|         325|  8.1641e+00|   -4.272885|   -4.504247|   -4.740479|   -4.571484|   -4.364778|  -11.639561|    2.875062|
|         326|  8.1624e+00|   -4.274566|   -4.506891|   -4.740414|   -4.571417|   -4.366161|  -11.637681|    2.864773|
|         327|  8.1611e+00|   -4.276202|   -4.509471|   -4.740352|   -4.571344|   -4.367527|  -11.635616|    2.854242|
|         328|  8.1597e+00|   -4.277764|   -4.511979|   -4.740306|   -4.571238|   -4.368836|  -11.633342|    2.843471|
|         329|  8.1584e+00|   -4.279232|   -4.514449|   -4.740287|   -4.571088|   -4.370090|  -11.630954|    2.832466|
|         330|  8.1570e+00|   -4.280652|   -4.516842|   -4.740285|   -4.570905|   -4.371297|  -11.628468|    2.821231|
|         331|  8.1555e+00|   -4.282054|   -4.519106|   -4.740331|   -4.570702|   -4.372486|  -11.625915|    2.809772|
|         332|  8.1543e+00|   -4.283453|   -4.521217|   -4.740415|   -4.570514|   -4.373708|  -11.623288|    2.798095|
|         333|  8.1529e+00|   -4.284910|   -4.523282|   -4.740567|   -4.570354|   -4.375022|  -11.620564|    2.786206|
|         334|  8.1518e+00|   -4.286413|   -4.525304|   -4.740790|   -4.570249|   -4.376429|  -11.617702|    2.774111|
|         335|  8.1506e+00|   -4.287918|   -4.527262|   -4.741072|   -4.570180|   -4.377876|  -11.614726|    2.761817|
|         336|  8.1492e+00|   -4.289362|   -4.529155|   -4.741389|   -4.570087|   -4.379284|  -11.611597|    2.749331|
|         337|  8.1477e+00|   -4.290716|   -4.530983|   -4.741701|   -4.569952|   -4.380617|  -11.608337|    2.736660|
|         338|  8.1461e+00|   -4.291983|   -4.532742|   -4.742001|   -4.569760|   -4.381866|  -11.604993|    2.723813|
|         339|  8.1447e+00|   -4.293187|   -4.534423|   -4.742301|   -4.569523|   -4.383054|  -11.601581|    2.710799|
|         340|  8.1434e+00|   -4.294352|   -4.536017|   -4.742594|   -4.569279|   -4.384204|  -11.598087|    2.697626|
|         341|  8.1421e+00|   -4.295514|   -4.537524|   -4.742842|   -4.569088|   -4.385362|  -11.594532|    2.684305|
|         342|  8.1408e+00|   -4.296700|   -4.538939|   -4.743035|   -4.568990|   -4.386559|  -11.590846|    2.670845|
|         343|  8.1395e+00|   -4.297925|   -4.540270|   -4.743200|   -4.568996|   -4.387815|  -11.586990|    2.657258|
|         344|  8.1379e+00|   -4.299195|   -4.541533|   -4.743403|   -4.569081|   -4.389137|  -11.582942|    2.643554|
|         345|  8.1364e+00|   -4.300520|   -4.542727|   -4.743699|   -4.569241|   -4.390542|  -11.578714|    2.629746|
|         346|  8.1352e+00|   -4.301867|   -4.543846|   -4.744115|   -4.569419|   -4.391993|  -11.574323|    2.615845|
|         347|  8.1338e+00|   -4.303174|   -4.544886|   -4.744617|   -4.569538|   -4.393409|  -11.569754|    2.601864|
|         348|  8.1326e+00|   -4.304418|   -4.545870|   -4.745161|   -4.569585|   -4.394772|  -11.564984|    2.587814|
|         349|  8.1311e+00|   -4.305593|   -4.546789|   -4.745671|   -4.569569|   -4.396060|  -11.560017|    2.573710|
|         350|  8.1297e+00|   -4.306717|   -4.547653|   -4.746108|   -4.569514|   -4.397289|  -11.554878|    2.559565|
|         351|  8.1286e+00|   -4.307799|   -4.548455|   -4.746444|   -4.569461|   -4.398466|  -11.549582|    2.545391|
|         352|  8.1276e+00|   -4.308878|   -4.549206|   -4.746714|   -4.569480|   -4.399651|  -11.544146|    2.531201|
|         353|  8.1264e+00|   -4.309998|   -4.549912|   -4.746991|   -4.569609|   -4.400897|  -11.538555|    2.517010|
|         354|  8.1253e+00|   -4.311160|   -4.550576|   -4.747344|   -4.569842|   -4.402207|  -11.532814|    2.502830|
|         355|  8.1241e+00|   -4.312342|   -4.551204|   -4.747809|   -4.570142|   -4.403560|  -11.526872|    2.488674|
|         356|  8.1218e+00|   -4.313530|   -4.551805|   -4.748371|   -4.570483|   -4.404938|  -11.520724|    2.474554|
|         357|  8.1207e+00|   -4.314700|   -4.552384|   -4.748983|   -4.570824|   -4.406313|  -11.514363|    2.460483|
|         358|  8.1196e+00|   -4.315838|   -4.552953|   -4.749594|   -4.571142|   -4.407659|  -11.507800|    2.446472|
|         359|  8.1188e+00|   -4.316941|   -4.553533|   -4.750171|   -4.571439|   -4.408975|  -11.501046|    2.432532|
|         360|  8.1178e+00|   -4.318028|   -4.554132|   -4.750726|   -4.571724|   -4.410284|  -11.494128|    2.418673|
|         361|  8.1166e+00|   -4.319110|   -4.554733|   -4.751294|   -4.571994|   -4.411593|  -11.487043|    2.404904|
|         362|  8.1154e+00|   -4.320198|   -4.555314|   -4.751909|   -4.572258|   -4.412913|  -11.479772|    2.391235|
|         363|  8.1143e+00|   -4.321302|   -4.555867|   -4.752604|   -4.572549|   -4.414260|  -11.472297|    2.377673|
|         364|  8.1131e+00|   -4.322406|   -4.556380|   -4.753386|   -4.572859|   -4.415617|  -11.464610|    2.364225|
|         365|  8.1118e+00|   -4.323486|   -4.556861|   -4.754237|   -4.573161|   -4.416963|  -11.456768|    2.350897|
|         366|  8.1109e+00|   -4.324539|   -4.557316|   -4.755135|   -4.573453|   -4.418292|  -11.448736|    2.337694|
|         367|  8.1100e+00|   -4.325574|   -4.557754|   -4.756070|   -4.573752|   -4.419621|  -11.440503|    2.324620|
|         368|  8.1087e+00|   -4.326570|   -4.558172|   -4.756986|   -4.574038|   -4.420908|  -11.432104|    2.311680|
|         369|  8.1073e+00|   -4.327530|   -4.558574|   -4.757874|   -4.574328|   -4.422158|  -11.423547|    2.298876|
|         370|  8.1061e+00|   -4.328466|   -4.558956|   -4.758739|   -4.574633|   -4.423385|  -11.414840|    2.286211|
|         371|  8.1051e+00|   -4.329377|   -4.559316|   -4.759579|   -4.574948|   -4.424586|  -11.406000|    2.273685|
|         372|  8.1039e+00|   -4.330266|   -4.559631|   -4.760417|   -4.575261|   -4.425758|  -11.397028|    2.261301|
|         373|  8.1013e+00|   -4.331128|   -4.559890|   -4.761245|   -4.575553|   -4.426888|  -11.387885|    2.249058|
|         374|  8.0989e+00|   -4.331968|   -4.560095|   -4.762095|   -4.575819|   -4.427979|  -11.378597|    2.236958|
|         375|  8.0966e+00|   -4.332807|   -4.560242|   -4.762981|   -4.576072|   -4.429049|  -11.369206|    2.224999|
|         376|  8.0944e+00|   -4.333659|   -4.560330|   -4.763915|   -4.576323|   -4.430107|  -11.359745|    2.213182|
|         377|  8.0921e+00|   -4.334522|   -4.560355|   -4.764876|   -4.576590|   -4.431148|  -11.350211|    2.201506|
|         378|  8.0900e+00|   -4.335394|   -4.560359|   -4.765872|   -4.576901|   -4.432183|  -11.340625|    2.189971|
|         379|  8.0876e+00|   -4.336250|   -4.560288|   -4.766887|   -4.577200|   -4.433177|  -11.331041|    2.178576|
|         380|  8.0854e+00|   -4.337066|   -4.560131|   -4.767882|   -4.577452|   -4.434094|  -11.321452|    2.167321|
|         381|  8.0833e+00|   -4.337848|   -4.559879|   -4.768852|   -4.577672|   -4.434950|  -11.311821|    2.156204|
|         382|  8.0824e+00|   -4.338583|   -4.559527|   -4.769800|   -4.577826|   -4.435726|  -11.302166|    2.145226|
|         383|  8.0815e+00|   -4.339268|   -4.559061|   -4.770725|   -4.577907|   -4.436422|  -11.292497|    2.134385|
|         384|  8.0806e+00|   -4.339916|   -4.558471|   -4.771644|   -4.577941|   -4.437054|  -11.282773|    2.123683|
|         385|  8.0804e+00|   -4.340529|   -4.557735|   -4.772562|   -4.577943|   -4.437630|  -11.273020|    2.113119|
|         386|  8.0799e+00|   -4.341097|   -4.556838|   -4.773476|   -4.577908|   -4.438142|  -11.263264|    2.102694|
|         387|  8.0789e+00|   -4.341615|   -4.555780|   -4.774383|   -4.577850|   -4.438597|  -11.253472|    2.092407|
|         388|  8.0780e+00|   -4.342068|   -4.554556|   -4.775268|   -4.577768|   -4.438983|  -11.243625|    2.082260|
|         389|  8.0770e+00|   -4.342459|   -4.553156|   -4.776125|   -4.577677|   -4.439312|  -11.233797|    2.072253|
|         390|  8.0755e+00|   -4.342791|   -4.551593|   -4.776969|   -4.577571|   -4.439597|  -11.224031|    2.062388|
|         391|  8.0741e+00|   -4.343054|   -4.549876|   -4.777805|   -4.577433|   -4.439833|  -11.214356|    2.052665|
|         392|  8.0732e+00|   -4.343241|   -4.548008|   -4.778618|   -4.577263|   -4.440019|  -11.204800|    2.043087|
|         393|  8.0724e+00|   -4.343319|   -4.545968|   -4.779409|   -4.577009|   -4.440119|  -11.195329|    2.033655|
|         394|  8.0714e+00|   -4.343271|   -4.543743|   -4.780187|   -4.576638|   -4.440113|  -11.185931|    2.024369|
|         395|  8.0704e+00|   -4.343090|   -4.541325|   -4.780942|   -4.576142|   -4.439998|  -11.176614|    2.015233|
|         396|  8.0693e+00|   -4.342781|   -4.538735|   -4.781664|   -4.575522|   -4.439785|  -11.167406|    2.006247|
|         397|  8.0682e+00|   -4.342339|   -4.535986|   -4.782330|   -4.574780|   -4.439473|  -11.158329|    1.997414|
|         398|  8.0671e+00|   -4.341772|   -4.533084|   -4.782932|   -4.573940|   -4.439074|  -11.149373|    1.988733|
|         399|  8.0664e+00|   -4.341099|   -4.530051|   -4.783486|   -4.573031|   -4.438615|  -11.140552|    1.980208|
|         400|  8.0658e+00|   -4.340319|   -4.526891|   -4.784001|   -4.572046|   -4.438086|  -11.131910|    1.971838|
|         401|  8.0646e+00|   -4.339436|   -4.523644|   -4.784505|   -4.570998|   -4.437494|  -11.123422|    1.963625|
|         402|  8.0637e+00|   -4.338456|   -4.520344|   -4.785007|   -4.569891|   -4.436838|  -11.115099|    1.955569|
|         403|  8.0627e+00|   -4.337383|   -4.516979|   -4.785509|   -4.568727|   -4.436109|  -11.106941|    1.947672|
|         404|  8.0618e+00|   -4.336232|   -4.513647|   -4.786015|   -4.567501|   -4.435324|  -11.098956|    1.939933|
|         405|  8.0608e+00|   -4.335035|   -4.510356|   -4.786532|   -4.566243|   -4.434504|  -11.091154|    1.932354|
|         406|  8.0598e+00|   -4.333820|   -4.507186|   -4.787054|   -4.564973|   -4.433678|  -11.083554|    1.924933|
|         407|  8.0591e+00|   -4.332611|   -4.504144|   -4.787571|   -4.563708|   -4.432858|  -11.076136|    1.917671|
|         408|  8.0582e+00|   -4.331417|   -4.501207|   -4.788077|   -4.562448|   -4.432039|  -11.068849|    1.910569|
|         409|  8.0574e+00|   -4.330268|   -4.498397|   -4.788602|   -4.561211|   -4.431255|  -11.061640|    1.903625|
|         410|  8.0565e+00|   -4.329186|   -4.495734|   -4.789153|   -4.560016|   -4.430523|  -11.054505|    1.896840|
|         411|  8.0555e+00|   -4.328182|   -4.493214|   -4.789749|   -4.558886|   -4.429850|  -11.047460|    1.890213|
|         412|  8.0550e+00|   -4.327251|   -4.490848|   -4.790411|   -4.557810|   -4.429232|  -11.040510|    1.883743|
|         413|  8.0545e+00|   -4.326388|   -4.488637|   -4.791167|   -4.556786|   -4.428670|  -11.033626|    1.877432|
|         414|  8.0538e+00|   -4.325579|   -4.486583|   -4.792026|   -4.555804|   -4.428155|  -11.026807|    1.871278|
|         415|  8.0529e+00|   -4.324795|   -4.484679|   -4.792979|   -4.554842|   -4.427665|  -11.020025|    1.865280|
|         416|  8.0521e+00|   -4.324016|   -4.482920|   -4.794023|   -4.553881|   -4.427187|  -11.013251|    1.859439|
|         417|  8.0512e+00|   -4.323221|   -4.481298|   -4.795137|   -4.552880|   -4.426703|  -11.006459|    1.853754|
|         418|  8.0506e+00|   -4.322395|   -4.479807|   -4.796293|   -4.551815|   -4.426200|  -10.999666|    1.848224|
|         419|  8.0501e+00|   -4.321526|   -4.478437|   -4.797471|   -4.550662|   -4.425674|  -10.992887|    1.842849|
|         420|  8.0494e+00|   -4.320618|   -4.477182|   -4.798640|   -4.549435|   -4.425135|  -10.986150|    1.837629|
|         421|  8.0487e+00|   -4.319676|   -4.476028|   -4.799795|   -4.548146|   -4.424602|  -10.979453|    1.832562|
|         422|  8.0480e+00|   -4.318684|   -4.474928|   -4.800923|   -4.546784|   -4.424060|  -10.972787|    1.827649|
|         423|  8.0474e+00|   -4.317617|   -4.473856|   -4.802008|   -4.545336|   -4.423498|  -10.966119|    1.822887|
|         424|  8.0465e+00|   -4.316446|   -4.472770|   -4.803022|   -4.543793|   -4.422897|  -10.959463|    1.818277|
|         425|  8.0456e+00|   -4.315138|   -4.471642|   -4.803937|   -4.542137|   -4.422233|  -10.952854|    1.813817|
|         426|  8.0450e+00|   -4.313661|   -4.470451|   -4.804722|   -4.540338|   -4.421483|  -10.946291|    1.809506|
|         427|  8.0441e+00|   -4.311983|   -4.469151|   -4.805345|   -4.538374|   -4.420618|  -10.939770|    1.805343|
|         428|  8.0432e+00|   -4.310072|   -4.467702|   -4.805774|   -4.536206|   -4.419605|  -10.933302|    1.801327|
|         429|  8.0422e+00|   -4.307905|   -4.466067|   -4.806000|   -4.533815|   -4.418422|  -10.926878|    1.797458|
|         430|  8.0401e+00|   -4.305474|   -4.464203|   -4.806012|   -4.531204|   -4.417060|  -10.920521|    1.793734|
|         431|  8.0380e+00|   -4.302762|   -4.462059|   -4.805804|   -4.528373|   -4.415504|  -10.914271|    1.790154|
|         432|  8.0361e+00|   -4.299757|   -4.459593|   -4.805372|   -4.525314|   -4.413734|  -10.908154|    1.786718|
|         433|  8.0343e+00|   -4.296448|   -4.456750|   -4.804715|   -4.522029|   -4.411730|  -10.902165|    1.783425|
|         434|  8.0323e+00|   -4.292813|   -4.453474|   -4.803828|   -4.518506|   -4.409461|  -10.896264|    1.780276|
|         435|  8.0316e+00|   -4.288848|   -4.449722|   -4.802707|   -4.514748|   -4.406907|  -10.890444|    1.777269|
|         436|  8.0307e+00|   -4.284521|   -4.445401|   -4.801344|   -4.510737|   -4.404009|  -10.884705|    1.774405|
|         437|  8.0297e+00|   -4.279832|   -4.440510|   -4.799734|   -4.506479|   -4.400758|  -10.879042|    1.771685|
|         438|  8.0288e+00|   -4.274784|   -4.435047|   -4.797873|   -4.501964|   -4.397140|  -10.873484|    1.769107|
|         439|  8.0278e+00|   -4.269384|   -4.429019|   -4.795759|   -4.497195|   -4.393151|  -10.868060|    1.766674|
|         440|  8.0271e+00|   -4.263648|   -4.422458|   -4.793402|   -4.492189|   -4.388800|  -10.862749|    1.764384|
|         441|  8.0262e+00|   -4.257601|   -4.415410|   -4.790816|   -4.486970|   -4.384107|  -10.857514|    1.762239|
|         442|  8.0255e+00|   -4.251262|   -4.407911|   -4.788007|   -4.481564|   -4.379084|  -10.852318|    1.760240|
|         443|  8.0247e+00|   -4.244656|   -4.399998|   -4.784991|   -4.475995|   -4.373750|  -10.847134|    1.758385|
|         444|  8.0241e+00|   -4.237820|   -4.391706|   -4.781782|   -4.470294|   -4.368129|  -10.841947|    1.756676|
|         445|  8.0234e+00|   -4.230788|   -4.383086|   -4.778378|   -4.464484|   -4.362245|  -10.836737|    1.755112|
|         446|  8.0227e+00|   -4.223595|   -4.374194|   -4.774805|   -4.458601|   -4.356130|  -10.831534|    1.753694|
|         447|  8.0219e+00|   -4.216264|   -4.365060|   -4.771065|   -4.452650|   -4.349796|  -10.826360|    1.752422|
|         448|  8.0211e+00|   -4.208840|   -4.355772|   -4.767169|   -4.446664|   -4.343294|  -10.821215|    1.751294|
|         449|  8.0203e+00|   -4.201366|   -4.346404|   -4.763135|   -4.440675|   -4.336672|  -10.816100|    1.750311|
|         450|  8.0194e+00|   -4.193860|   -4.336983|   -4.758972|   -4.434681|   -4.329937|  -10.810977|    1.749472|
+-----------------------------------------------------------------------+
|        File Writing Summary       |              Filename             |
+-----------------------------------------------------------------------+
|SU2 binary restart                 |restart_flow.dat                   |
|Paraview                           |flow.vtu                           |
|Paraview surface                   |surface_flow.vtu                   |
+-----------------------------------------------------------------------+
+--------------------------------------------------------------------------------------------------------------------+
|  Inner_Iter|   Time(sec)|    rms[Rho]|   rms[RhoU]|   rms[RhoV]|   rms[RhoW]|   rms[RhoE]|     rms[nu]|          CD|
+--------------------------------------------------------------------------------------------------------------------+
|         451|  8.0651e+00|   -4.186355|   -4.327555|   -4.754700|   -4.428705|   -4.323117|  -10.805829|    1.748776|
|         452|  8.0646e+00|   -4.178913|   -4.318255|   -4.750352|   -4.422799|   -4.316300|  -10.800639|    1.748223|
|         453|  8.0636e+00|   -4.171535|   -4.309045|   -4.745947|   -4.416942|   -4.309467|  -10.795363|    1.747811|
|         454|  8.0629e+00|   -4.164248|   -4.299956|   -4.741522|   -4.411151|   -4.302647|  -10.789963|    1.747539|
|         455|  8.0624e+00|   -4.157068|   -4.291025|   -4.737107|   -4.405429|   -4.295860|  -10.784452|    1.747406|
|         456|  8.0619e+00|   -4.150029|   -4.282308|   -4.732727|   -4.399803|   -4.289154|  -10.778790|    1.747412|
|         457|  8.0614e+00|   -4.143170|   -4.273897|   -4.728417|   -4.394298|   -4.282580|  -10.772942|    1.747554|
|         458|  8.0606e+00|   -4.136518|   -4.265815|   -4.724203|   -4.388922|   -4.276170|  -10.766879|    1.747832|
|         459|  8.0597e+00|   -4.130100|   -4.258095|   -4.720107|   -4.383704|   -4.269963|  -10.760586|    1.748245|
|         460|  8.0589e+00|   -4.123933|   -4.250762|   -4.716138|   -4.378663|   -4.263985|  -10.754095|    1.748791|
|         461|  8.0579e+00|   -4.118023|   -4.243829|   -4.712307|   -4.373797|   -4.258251|  -10.747442|    1.749469|
|         462|  8.0570e+00|   -4.112386|   -4.237310|   -4.708625|   -4.369112|   -4.252779|  -10.740662|    1.750279|
|         463|  8.0560e+00|   -4.107027|   -4.231217|   -4.705089|   -4.364612|   -4.247581|  -10.733768|    1.751218|
|         464|  8.0551e+00|   -4.101938|   -4.225540|   -4.701693|   -4.360284|   -4.242653|  -10.726779|    1.752287|
|         465|  8.0542e+00|   -4.097117|   -4.220278|   -4.698432|   -4.356128|   -4.238000|  -10.719671|    1.753484|
|         466|  8.0533e+00|   -4.092581|   -4.215443|   -4.695323|   -4.352171|   -4.233655|  -10.712489|    1.754808|
|         467|  8.0526e+00|   -4.088305|   -4.211008|   -4.692339|   -4.348390|   -4.229593|  -10.705249|    1.756259|
|         468|  8.0520e+00|   -4.084261|   -4.206936|   -4.689459|   -4.344754|   -4.225787|  -10.697967|    1.757834|
|         469|  8.0512e+00|   -4.080459|   -4.203222|   -4.686675|   -4.341280|   -4.222244|  -10.690640|    1.759534|
|         470|  8.0504e+00|   -4.076862|   -4.199813|   -4.683954|   -4.337944|   -4.218933|  -10.683250|    1.761357|
|         471|  8.0496e+00|   -4.073422|   -4.196642|   -4.681258|   -4.334697|   -4.215800|  -10.675844|    1.763303|
|         472|  8.0491e+00|   -4.070133|   -4.193681|   -4.678579|   -4.331534|   -4.212833|  -10.668473|    1.765371|
|         473|  8.0485e+00|   -4.066965|   -4.190882|   -4.675888|   -4.328440|   -4.210003|  -10.661154|    1.767559|
|         474|  8.0481e+00|   -4.063908|   -4.188221|   -4.673184|   -4.325421|   -4.207303|  -10.653890|    1.769866|
|         475|  8.0477e+00|   -4.060944|   -4.185646|   -4.670450|   -4.322463|   -4.204703|  -10.646696|    1.772292|
|         476|  8.0472e+00|   -4.058042|   -4.183085|   -4.667642|   -4.319549|   -4.202155|  -10.639591|    1.774835|
|         477|  8.0466e+00|   -4.055148|   -4.180472|   -4.664732|   -4.316628|   -4.199591|  -10.632593|    1.777494|
|         478|  8.0458e+00|   -4.052220|   -4.177749|   -4.661702|   -4.313663|   -4.196960|  -10.625695|    1.780268|
|         479|  8.0450e+00|   -4.049254|   -4.174892|   -4.658554|   -4.310678|   -4.194252|  -10.618905|    1.783155|
|         480|  8.0443e+00|   -4.046220|   -4.171860|   -4.655289|   -4.307664|   -4.191436|  -10.612233|    1.786155|
|         481|  8.0376e+00|   -4.043100|   -4.168629|   -4.651928|   -4.304616|   -4.188493|  -10.615188|    1.786250|
|         482|  8.0309e+00|   -4.043137|   -4.168656|   -4.651982|   -4.304672|   -4.188650|  -10.614838|    1.786365|
|         483|  8.0242e+00|   -4.043185|   -4.168697|   -4.652040|   -4.304741|   -4.188843|  -10.614418|    1.786503|
|         484|  8.0185e+00|   -4.043249|   -4.168757|   -4.652098|   -4.304826|   -4.189083|  -10.613916|    1.786669|
|         485|  8.0128e+00|   -4.043335|   -4.168845|   -4.652153|   -4.304932|   -4.189383|  -10.613316|    1.786870|
|         486|  8.0069e+00|   -4.043452|   -4.168973|   -4.652200|   -4.305065|   -4.189759|  -10.612599|    1.787111|
|         487|  8.0013e+00|   -4.043607|   -4.169153|   -4.652227|   -4.305228|   -4.190231|  -10.611744|    1.787404|
|         488|  7.9955e+00|   -4.043814|   -4.169405|   -4.652223|   -4.305429|   -4.190824|  -10.610727|    1.787757|
|         489|  7.9899e+00|   -4.044086|   -4.169754|   -4.652165|   -4.305675|   -4.191569|  -10.609518|    1.788185|
|         490|  7.9851e+00|   -4.044443|   -4.170228|   -4.652029|   -4.305973|   -4.192503|  -10.608082|    1.788704|
|         491|  7.9805e+00|   -4.044903|   -4.170860|   -4.651776|   -4.306329|   -4.193665|  -10.606383|    1.789334|
|         492|  7.9757e+00|   -4.045484|   -4.171681|   -4.651366|   -4.306745|   -4.195098|  -10.604377|    1.790101|
|         493|  7.9712e+00|   -4.046190|   -4.172708|   -4.650742|   -4.307210|   -4.196823|  -10.602009|    1.791036|
|         494|  7.9676e+00|   -4.046998|   -4.173922|   -4.649844|   -4.307696|   -4.198831|  -10.599222|    1.792178|
|         495|  7.9640e+00|   -4.047845|   -4.175244|   -4.648619|   -4.308140|   -4.201043|  -10.595945|    1.793574|
|         496|  7.9603e+00|   -4.048559|   -4.176456|   -4.647012|   -4.308405|   -4.203232|  -10.592096|    1.795284|
|         497|  7.9577e+00|   -4.048853|   -4.177165|   -4.644999|   -4.308277|   -4.204978|  -10.587612|    1.797382|
|         498|  7.9550e+00|   -4.048290|   -4.176754|   -4.642598|   -4.307451|   -4.205607|  -10.582351|    1.799961|
|         499|  7.9535e+00|   -4.046274|   -4.174378|   -4.639847|   -4.305542|   -4.204173|  -10.576186|    1.803142|
|         500|  7.9531e+00|   -4.042127|   -4.169089|   -4.636787|   -4.302086|   -4.199556|  -10.569554|    1.806827|
|         501|  7.9526e+00|   -4.035981|   -4.161007|   -4.633726|   -4.297286|   -4.191760|  -10.563298|    1.810605|
|         502|  7.9521e+00|   -4.029316|   -4.152104|   -4.631206|   -4.292335|   -4.182876|  -10.556847|    1.814477|
|         503|  7.9515e+00|   -4.022756|   -4.143296|   -4.628970|   -4.287605|   -4.173924|  -10.550215|    1.818445|
|         504|  7.9509e+00|   -4.016734|   -4.135201|   -4.626782|   -4.283356|   -4.165627|  -10.543432|    1.822508|
|         505|  7.9505e+00|   -4.011466|   -4.128141|   -4.624466|   -4.279698|   -4.158382|  -10.536476|    1.826668|
|         506|  7.9498e+00|   -4.006974|   -4.122169|   -4.621910|   -4.276588|   -4.152294|  -10.529324|    1.830923|
|         507|  7.9492e+00|   -4.003169|   -4.117180|   -4.619073|   -4.273935|   -4.147288|  -10.522006|    1.835273|
|         508|  7.9486e+00|   -3.999912|   -4.112977|   -4.616009|   -4.271630|   -4.143196|  -10.514553|    1.839715|
|         509|  7.9481e+00|   -3.997075|   -4.109360|   -4.612835|   -4.269601|   -4.139837|  -10.506992|    1.844250|
|         510|  7.9478e+00|   -3.994473|   -4.106090|   -4.609606|   -4.267715|   -4.136952|  -10.499351|    1.848875|
|         511|  7.9474e+00|   -3.991946|   -4.102953|   -4.606383|   -4.265856|   -4.134303|  -10.491635|    1.853589|
|         512|  7.9470e+00|   -3.989403|   -4.099820|   -4.603248|   -4.263980|   -4.131739|  -10.483854|    1.858392|
|         513|  7.9465e+00|   -3.986801|   -4.096609|   -4.600235|   -4.262062|   -4.129153|  -10.476009|    1.863281|
|         514|  7.9461e+00|   -3.984111|   -4.093284|   -4.597369|   -4.260068|   -4.126471|  -10.468039|    1.868255|
|         515|  7.9458e+00|   -3.981377|   -4.089877|   -4.594668|   -4.258054|   -4.123718|  -10.459923|    1.873313|
|         516|  7.9453e+00|   -3.978599|   -4.086406|   -4.592114|   -4.255989|   -4.120873|  -10.451692|    1.878453|
|         517|  7.9448e+00|   -3.975808|   -4.082914|   -4.589683|   -4.253896|   -4.117970|  -10.443378|    1.883674|
|         518|  7.9446e+00|   -3.973049|   -4.079459|   -4.587358|   -4.251806|   -4.115058|  -10.434996|    1.888973|
|         519|  7.9443e+00|   -3.970360|   -4.076079|   -4.585102|   -4.249769|   -4.112186|  -10.426563|    1.894349|
|         520|  7.9440e+00|   -3.967750|   -4.072796|   -4.582921|   -4.247780|   -4.109369|  -10.418031|    1.899800|
|         521|  7.9434e+00|   -3.965232|   -4.069634|   -4.580828|   -4.245855|   -4.106637|  -10.409396|    1.905323|
|         522|  7.9428e+00|   -3.962815|   -4.066603|   -4.578814|   -4.244003|   -4.104006|  -10.400687|    1.910918|
|         523|  7.9423e+00|   -3.960519|   -4.063713|   -4.576882|   -4.242242|   -4.101488|  -10.391892|    1.916582|
|         524|  7.9420e+00|   -3.958328|   -4.060956|   -4.575032|   -4.240552|   -4.099070|  -10.383016|    1.922312|
|         525|  7.9416e+00|   -3.956230|   -4.058325|   -4.573284|   -4.238929|   -4.096751|  -10.374085|    1.928106|
|         526|  7.9410e+00|   -3.954255|   -4.055843|   -4.571694|   -4.237409|   -4.094567|  -10.365070|    1.933962|
|         527|  7.9404e+00|   -3.952412|   -4.053519|   -4.570249|   -4.235993|   -4.092516|  -10.355962|    1.939878|
|         528|  7.9399e+00|   -3.950701|   -4.051354|   -4.568982|   -4.234706|   -4.090612|  -10.346739|    1.945851|
|         529|  7.9395e+00|   -3.949122|   -4.049350|   -4.567885|   -4.233552|   -4.088854|  -10.337427|    1.951879|
|         530|  7.9391e+00|   -3.947750|   -4.047555|   -4.566989|   -4.232655|   -4.087329|  -10.328049|    1.957960|
|         531|  7.9386e+00|   -3.946559|   -4.045954|   -4.566306|   -4.231956|   -4.086006|  -10.318626|    1.964090|
|         532|  7.9382e+00|   -3.945491|   -4.044512|   -4.565786|   -4.231327|   -4.084802|  -10.309182|    1.970268|
|         533|  7.9378e+00|   -3.944567|   -4.043237|   -4.565441|   -4.230804|   -4.083744|  -10.299711|    1.976491|
|         534|  7.9377e+00|   -3.943775|   -4.042122|   -4.565259|   -4.230368|   -4.082819|  -10.290248|    1.982757|
|         535|  7.9373e+00|   -3.943100|   -4.041152|   -4.565207|   -4.230004|   -4.082009|  -10.280762|    1.989062|
|         536|  7.9370e+00|   -3.942550|   -4.040333|   -4.565287|   -4.229721|   -4.081325|  -10.271271|    1.995405|
|         537|  7.9366e+00|   -3.942159|   -4.039683|   -4.565485|   -4.229565|   -4.080792|  -10.261776|    2.001783|
|         538|  7.9362e+00|   -3.941893|   -4.039169|   -4.565805|   -4.229506|   -4.080383|  -10.252283|    2.008193|
[...]
|        3906|  7.6658e+00|   -7.342690|   -7.399379|   -7.928708|   -7.652596|   -7.463466|   -8.965743|    2.160917|
|        3907|  7.6658e+00|   -7.346645|   -7.404530|   -7.929591|   -7.656024|   -7.467314|   -8.966188|    2.160910|
|        3908|  7.6657e+00|   -7.350603|   -7.409740|   -7.930470|   -7.659476|   -7.471189|   -8.966654|    2.160904|
|        3909|  7.6657e+00|   -7.354557|   -7.415004|   -7.931344|   -7.662947|   -7.475086|   -8.967142|    2.160897|
|        3910|  7.6656e+00|   -7.358499|   -7.420313|   -7.932212|   -7.666431|   -7.478999|   -8.967650|    2.160891|
|        3911|  7.6656e+00|   -7.362421|   -7.425659|   -7.933071|   -7.669921|   -7.482922|   -8.968179|    2.160884|
|        3912|  7.6655e+00|   -7.366315|   -7.431035|   -7.933919|   -7.673410|   -7.486848|   -8.968730|    2.160877|
|        3913|  7.6655e+00|   -7.370172|   -7.436430|   -7.934756|   -7.676894|   -7.490768|   -8.969301|    2.160871|
|        3914|  7.6655e+00|   -7.373984|   -7.441834|   -7.935580|   -7.680363|   -7.494677|   -8.969894|    2.160864|
|        3915|  7.6654e+00|   -7.377742|   -7.447239|   -7.936389|   -7.683812|   -7.498567|   -8.970509|    2.160858|
|        3916|  7.6654e+00|   -7.381437|   -7.452632|   -7.937181|   -7.687233|   -7.502429|   -8.971144|    2.160851|
|        3917|  7.6654e+00|   -7.385060|   -7.458002|   -7.937956|   -7.690619|   -7.506255|   -8.971801|    2.160845|
|        3918|  7.6653e+00|   -7.388602|   -7.463338|   -7.938712|   -7.693961|   -7.510038|   -8.972480|    2.160838|
|        3919|  7.6653e+00|   -7.392052|   -7.468626|   -7.939447|   -7.697253|   -7.513769|   -8.973179|    2.160832|
|        3920|  7.6652e+00|   -7.395403|   -7.473853|   -7.940160|   -7.700487|   -7.517440|   -8.973901|    2.160825|
|        3921|  7.6652e+00|   -7.398645|   -7.479006|   -7.940849|   -7.703655|   -7.521040|   -8.974644|    2.160819|
|        3922|  7.6652e+00|   -7.401769|   -7.484071|   -7.941517|   -7.706749|   -7.524564|   -8.975408|    2.160813|
|        3923|  7.6651e+00|   -7.404767|   -7.489034|   -7.942159|   -7.709762|   -7.528001|   -8.976194|    2.160806|
|        3924|  7.6651e+00|   -7.407629|   -7.493880|   -7.942775|   -7.712685|   -7.531343|   -8.977001|    2.160800|
|        3925|  7.6651e+00|   -7.410348|   -7.498593|   -7.943365|   -7.715512|   -7.534580|   -8.977830|    2.160794|
|        3926|  7.6650e+00|   -7.412916|   -7.503160|   -7.943927|   -7.718235|   -7.537705|   -8.978681|    2.160788|
|        3927|  7.6650e+00|   -7.415326|   -7.507565|   -7.944463|   -7.720847|   -7.540710|   -8.979553|    2.160782|
|        3928|  7.6649e+00|   -7.417572|   -7.511793|   -7.944972|   -7.723341|   -7.543586|   -8.980447|    2.160776|
|        3929|  7.6648e+00|   -7.419648|   -7.515831|   -7.945454|   -7.725712|   -7.546328|   -8.981362|    2.160770|
|        3930|  7.6648e+00|   -7.421548|   -7.519664|   -7.945909|   -7.727952|   -7.548927|   -8.982299|    2.160764|
|        3931|  7.6647e+00|   -7.423268|   -7.523278|   -7.946336|   -7.730057|   -7.551375|   -8.983258|    2.160758|
|        3932|  7.6647e+00|   -7.424805|   -7.526661|   -7.946737|   -7.732022|   -7.553668|   -8.984238|    2.160753|
|        3933|  7.6646e+00|   -7.426156|   -7.529802|   -7.947112|   -7.733841|   -7.555799|   -8.985240|    2.160747|
|        3934|  7.6645e+00|   -7.427319|   -7.532689|   -7.947461|   -7.735511|   -7.557765|   -8.986263|    2.160742|
|        3935|  7.6645e+00|   -7.428294|   -7.535315|   -7.947787|   -7.737029|   -7.559562|   -8.987308|    2.160736|
|        3936|  7.6644e+00|   -7.429082|   -7.537671|   -7.948089|   -7.738393|   -7.561186|   -8.988375|    2.160731|
|        3937|  7.6643e+00|   -7.429683|   -7.539751|   -7.948368|   -7.739601|   -7.562636|   -8.989463|    2.160725|
|        3938|  7.6643e+00|   -7.430101|   -7.541551|   -7.948626|   -7.740652|   -7.563909|   -8.990573|    2.160720|
|        3939|  7.6642e+00|   -7.430339|   -7.543068|   -7.948867|   -7.741545|   -7.565007|   -8.991704|    2.160715|
|        3940|  7.6641e+00|   -7.430398|   -7.544300|   -7.949087|   -7.742282|   -7.565926|   -8.992857|    2.160710|
|        3941|  7.6640e+00|   -7.430282|   -7.545247|   -7.949288|   -7.742861|   -7.566667|   -8.994031|    2.160705|
|        3942|  7.6640e+00|   -7.429996|   -7.545910|   -7.949472|   -7.743286|   -7.567232|   -8.995226|    2.160700|
|        3943|  7.6639e+00|   -7.429548|   -7.546294|   -7.949640|   -7.743558|   -7.567623|   -8.996443|    2.160695|
|        3944|  7.6638e+00|   -7.428942|   -7.546404|   -7.949796|   -7.743681|   -7.567843|   -8.997681|    2.160690|
|        3945|  7.6638e+00|   -7.428186|   -7.546247|   -7.949939|   -7.743657|   -7.567896|   -8.998940|    2.160686|
|        3946|  7.6637e+00|   -7.427288|   -7.545831|   -7.950072|   -7.743492|   -7.567787|   -9.000220|    2.160681|
|        3947|  7.6636e+00|   -7.426258|   -7.545166|   -7.950199|   -7.743191|   -7.567523|   -9.001522|    2.160677|
|        3948|  7.6635e+00|   -7.425101|   -7.544264|   -7.950318|   -7.742759|   -7.567108|   -9.002844|    2.160673|
|        3949|  7.6635e+00|   -7.423827|   -7.543136|   -7.950431|   -7.742200|   -7.566547|   -9.004187|    2.160668|
|        3950|  7.6634e+00|   -7.422444|   -7.541794|   -7.950541|   -7.741521|   -7.565849|   -9.005551|    2.160664|
|        3951|  7.6634e+00|   -7.420964|   -7.540253|   -7.950652|   -7.740730|   -7.565023|   -9.006935|    2.160660|
|        3952|  7.6633e+00|   -7.419394|   -7.538527|   -7.950762|   -7.739833|   -7.564073|   -9.008340|    2.160656|
|        3953|  7.6632e+00|   -7.417743|   -7.536629|   -7.950875|   -7.738836|   -7.563008|   -9.009766|    2.160653|
|        3954|  7.6632e+00|   -7.416020|   -7.534575|   -7.950993|   -7.737747|   -7.561838|   -9.011212|    2.160649|
|        3955|  7.6631e+00|   -7.414235|   -7.532379|   -7.951115|   -7.736573|   -7.560568|   -9.012678|    2.160645|
|        3956|  7.6631e+00|   -7.412395|   -7.530055|   -7.951246|   -7.735321|   -7.559209|   -9.014164|    2.160642|
|        3957|  7.6630e+00|   -7.410511|   -7.527618|   -7.951388|   -7.734001|   -7.557769|   -9.015669|    2.160638|
|        3958|  7.6630e+00|   -7.408590|   -7.525084|   -7.951543|   -7.732618|   -7.556257|   -9.017195|    2.160635|
|        3959|  7.6629e+00|   -7.406642|   -7.522464|   -7.951713|   -7.731181|   -7.554681|   -9.018740|    2.160632|
|        3960|  7.6629e+00|   -7.404674|   -7.519774|   -7.951900|   -7.729697|   -7.553049|   -9.020305|    2.160629|
|        3961|  7.6628e+00|   -7.402694|   -7.517026|   -7.952108|   -7.728173|   -7.551370|   -9.021889|    2.160626|
|        3962|  7.6628e+00|   -7.400710|   -7.514233|   -7.952337|   -7.726616|   -7.549652|   -9.023491|    2.160623|
|        3963|  7.6628e+00|   -7.398729|   -7.511407|   -7.952589|   -7.725033|   -7.547903|   -9.025113|    2.160621|
|        3964|  7.6627e+00|   -7.396758|   -7.508559|   -7.952867|   -7.723431|   -7.546131|   -9.026753|    2.160618|
|        3965|  7.6627e+00|   -7.394804|   -7.505701|   -7.953172|   -7.721818|   -7.544342|   -9.028411|    2.160616|
|        3966|  7.6626e+00|   -7.392873|   -7.502843|   -7.953507|   -7.720199|   -7.542545|   -9.030087|    2.160613|
|        3967|  7.6626e+00|   -7.390972|   -7.499994|   -7.953872|   -7.718581|   -7.540747|   -9.031781|    2.160611|
|        3968|  7.6625e+00|   -7.389106|   -7.497164|   -7.954270|   -7.716970|   -7.538954|   -9.033493|    2.160609|
|        3969|  7.6625e+00|   -7.387280|   -7.494361|   -7.954702|   -7.715372|   -7.537173|   -9.035222|    2.160607|
|        3970|  7.6624e+00|   -7.385499|   -7.491593|   -7.955169|   -7.713793|   -7.535410|   -9.036967|    2.160605|
|        3971|  7.6624e+00|   -7.383769|   -7.488868|   -7.955673|   -7.712237|   -7.533670|   -9.038729|    2.160603|
|        3972|  7.6623e+00|   -7.382094|   -7.486192|   -7.956215|   -7.710710|   -7.531959|   -9.040507|    2.160601|
|        3973|  7.6623e+00|   -7.380477|   -7.483572|   -7.956796|   -7.709217|   -7.530283|   -9.042301|    2.160600|
|        3974|  7.6622e+00|   -7.378923|   -7.481014|   -7.957417|   -7.707762|   -7.528646|   -9.044111|    2.160598|
|        3975|  7.6622e+00|   -7.377435|   -7.478523|   -7.958079|   -7.706349|   -7.527053|   -9.045935|    2.160597|
|        3976|  7.6621e+00|   -7.376017|   -7.476105|   -7.958782|   -7.704983|   -7.525507|   -9.047775|    2.160595|
|        3977|  7.6621e+00|   -7.374671|   -7.473763|   -7.959528|   -7.703666|   -7.524014|   -9.049628|    2.160594|
|        3978|  7.6620e+00|   -7.373400|   -7.471502|   -7.960317|   -7.702403|   -7.522577|   -9.051496|    2.160593|
|        3979|  7.6619e+00|   -7.372207|   -7.469325|   -7.961150|   -7.701197|   -7.521199|   -9.053377|    2.160592|
|        3980|  7.6619e+00|   -7.371095|   -7.467237|   -7.962027|   -7.700051|   -7.519884|   -9.055271|    2.160591|
|        3981|  7.6618e+00|   -7.370065|   -7.465240|   -7.962949|   -7.698967|   -7.518635|   -9.057178|    2.160590|
|        3982|  7.6617e+00|   -7.369119|   -7.463337|   -7.963916|   -7.697950|   -7.517455|   -9.059096|    2.160589|
|        3983|  7.6617e+00|   -7.368259|   -7.461530|   -7.964929|   -7.697000|   -7.516347|   -9.061026|    2.160589|
|        3984|  7.6616e+00|   -7.367488|   -7.459823|   -7.965987|   -7.696121|   -7.515312|   -9.062968|    2.160588|
|        3985|  7.6616e+00|   -7.366806|   -7.458216|   -7.967091|   -7.695315|   -7.514355|   -9.064920|    2.160588|
|        3986|  7.6615e+00|   -7.366215|   -7.456712|   -7.968240|   -7.694584|   -7.513476|   -9.066882|    2.160587|
|        3987|  7.6615e+00|   -7.365716|   -7.455313|   -7.969435|   -7.693929|   -7.512679|   -9.068853|    2.160587|
|        3988|  7.6614e+00|   -7.365311|   -7.454021|   -7.970675|   -7.693354|   -7.511964|   -9.070834|    2.160587|
|        3989|  7.6614e+00|   -7.365000|   -7.452836|   -7.971960|   -7.692858|   -7.511334|   -9.072822|    2.160587|
|        3990|  7.6613e+00|   -7.364785|   -7.451759|   -7.973289|   -7.692445|   -7.510790|   -9.074819|    2.160587|
|        3991|  7.6613e+00|   -7.364665|   -7.450793|   -7.974662|   -7.692114|   -7.510334|   -9.076822|    2.160587|
|        3992|  7.6612e+00|   -7.364642|   -7.449937|   -7.976077|   -7.691868|   -7.509967|   -9.078832|    2.160587|
|        3993|  7.6611e+00|   -7.364715|   -7.449192|   -7.977534|   -7.691707|   -7.509690|   -9.080848|    2.160587|
|        3994|  7.6611e+00|   -7.364886|   -7.448559|   -7.979032|   -7.691632|   -7.509504|   -9.082870|    2.160588|
|        3995|  7.6610e+00|   -7.365154|   -7.448038|   -7.980569|   -7.691644|   -7.509409|   -9.084895|    2.160588|
|        3996|  7.6610e+00|   -7.365519|   -7.447629|   -7.982144|   -7.691744|   -7.509407|   -9.086925|    2.160588|
|        3997|  7.6609e+00|   -7.365981|   -7.447334|   -7.983755|   -7.691932|   -7.509499|   -9.088958|    2.160589|
|        3998|  7.6608e+00|   -7.366540|   -7.447151|   -7.985402|   -7.692208|   -7.509684|   -9.090994|    2.160590|
|        3999|  7.6608e+00|   -7.367196|   -7.447081|   -7.987082|   -7.692574|   -7.509963|   -9.093031|    2.160590|
|        4000|  7.6607e+00|   -7.367947|   -7.447124|   -7.988794|   -7.693029|   -7.510337|   -9.095070|    2.160591|
|        4001|  7.6607e+00|   -7.368795|   -7.447279|   -7.990535|   -7.693573|   -7.510805|   -9.097109|    2.160592|
|        4002|  7.6606e+00|   -7.369737|   -7.447547|   -7.992303|   -7.694207|   -7.511369|   -9.099148|    2.160592|
|        4003|  7.6605e+00|   -7.370774|   -7.447928|   -7.994097|   -7.694930|   -7.512027|   -9.101186|    2.160593|
|        4004|  7.6605e+00|   -7.371905|   -7.448420|   -7.995913|   -7.695743|   -7.512781|   -9.103222|    2.160594|
|        4005|  7.6604e+00|   -7.373128|   -7.449024|   -7.997749|   -7.696644|   -7.513630|   -9.105256|    2.160595|
|        4006|  7.6603e+00|   -7.374442|   -7.449739|   -7.999603|   -7.697635|   -7.514573|   -9.107287|    2.160596|
|        4007|  7.6603e+00|   -7.375847|   -7.450565|   -8.001472|   -7.698713|   -7.515611|   -9.109313|    2.160597|
|        4008|  7.6602e+00|   -7.377341|   -7.451500|   -8.003353|   -7.699880|   -7.516743|   -9.111336|    2.160598|
|        4009|  7.6602e+00|   -7.378922|   -7.452545|   -8.005244|   -7.701135|   -7.517968|   -9.113353|    2.160600|
|        4010|  7.6601e+00|   -7.380591|   -7.453699|   -8.007140|   -7.702476|   -7.519288|   -9.115364|    2.160601|
|        4011|  7.6601e+00|   -7.382343|   -7.454960|   -8.009040|   -7.703903|   -7.520699|   -9.117368|    2.160602|
|        4012|  7.6600e+00|   -7.384179|   -7.456328|   -8.010939|   -7.705416|   -7.522203|   -9.119365|    2.160603|
|        4013|  7.6599e+00|   -7.386096|   -7.457803|   -8.012836|   -7.707013|   -7.523798|   -9.121353|    2.160604|
|        4014|  7.6598e+00|   -7.388092|   -7.459382|   -8.014725|   -7.708694|   -7.525483|   -9.123332|    2.160606|
|        4015|  7.6598e+00|   -7.390165|   -7.461065|   -8.016604|   -7.710457|   -7.527258|   -9.125302|    2.160607|
|        4016|  7.6597e+00|   -7.392313|   -7.462851|   -8.018470|   -7.712301|   -7.529120|   -9.127261|    2.160608|
|        4017|  7.6596e+00|   -7.394533|   -7.464739|   -8.020320|   -7.714225|   -7.531070|   -9.129209|    2.160610|
|        4018|  7.6596e+00|   -7.396823|   -7.466727|   -8.022149|   -7.716227|   -7.533106|   -9.131146|    2.160611|
|        4019|  7.6595e+00|   -7.399180|   -7.468815|   -8.023955|   -7.718307|   -7.535227|   -9.133070|    2.160613|
|        4020|  7.6594e+00|   -7.401603|   -7.471000|   -8.025734|   -7.720463|   -7.537431|   -9.134980|    2.160614|
|        4021|  7.6594e+00|   -7.404087|   -7.473281|   -8.027482|   -7.722693|   -7.539717|   -9.136877|    2.160616|
|        4022|  7.6593e+00|   -7.406629|   -7.475656|   -8.029196|   -7.724995|   -7.542083|   -9.138759|    2.160617|
|        4023|  7.6593e+00|   -7.409227|   -7.478125|   -8.030873|   -7.727367|   -7.544527|   -9.140627|    2.160619|
|        4024|  7.6592e+00|   -7.411877|   -7.480684|   -8.032509|   -7.729808|   -7.547047|   -9.142478|    2.160620|
|        4025|  7.6592e+00|   -7.414576|   -7.483333|   -8.034102|   -7.732315|   -7.549642|   -9.144313|    2.160621|
|        4026|  7.6591e+00|   -7.417320|   -7.486068|   -8.035649|   -7.734886|   -7.552309|   -9.146131|    2.160623|
|        4027|  7.6591e+00|   -7.420105|   -7.488888|   -8.037146|   -7.737519|   -7.555047|   -9.147932|    2.160624|
|        4028|  7.6590e+00|   -7.422927|   -7.491791|   -8.038592|   -7.740211|   -7.557852|   -9.149714|    2.160626|
|        4029|  7.6590e+00|   -7.425782|   -7.494775|   -8.039983|   -7.742961|   -7.560722|   -9.151478|    2.160627|
|        4030|  7.6589e+00|   -7.428666|   -7.497835|   -8.041316|   -7.745764|   -7.563654|   -9.153223|    2.160629|
|        4031|  7.6589e+00|   -7.431575|   -7.500971|   -8.042590|   -7.748619|   -7.566645|   -9.154948|    2.160630|
|        4032|  7.6588e+00|   -7.434503|   -7.504178|   -8.043802|   -7.751523|   -7.569693|   -9.156653|    2.160632|
|        4033|  7.6587e+00|   -7.437446|   -7.507454|   -8.044951|   -7.754472|   -7.572794|   -9.158337|    2.160633|
|        4034|  7.6587e+00|   -7.440400|   -7.510795|   -8.046034|   -7.757462|   -7.575943|   -9.160000|    2.160635|
|        4035|  7.6586e+00|   -7.443358|   -7.514198|   -8.047051|   -7.760492|   -7.579139|   -9.161642|    2.160636|
|        4036|  7.6586e+00|   -7.446316|   -7.517660|   -8.048000|   -7.763556|   -7.582376|   -9.163262|    2.160637|
|        4037|  7.6585e+00|   -7.449268|   -7.521175|   -8.048881|   -7.766651|   -7.585652|   -9.164860|    2.160639|
|        4038|  7.6585e+00|   -7.452210|   -7.524741|   -8.049693|   -7.769775|   -7.588960|   -9.166436|    2.160640|
|        4039|  7.6584e+00|   -7.455135|   -7.528353|   -8.050436|   -7.772921|   -7.592299|   -9.167989|    2.160641|
|        4040|  7.6583e+00|   -7.458039|   -7.532006|   -8.051110|   -7.776087|   -7.595661|   -9.169519|    2.160643|
|        4041|  7.6583e+00|   -7.460916|   -7.535695|   -8.051715|   -7.779269|   -7.599044|   -9.171026|    2.160644|
|        4042|  7.6582e+00|   -7.463760|   -7.539417|   -8.052253|   -7.782461|   -7.602442|   -9.172509|    2.160645|
|        4043|  7.6581e+00|   -7.466566|   -7.543166|   -8.052724|   -7.785661|   -7.605850|   -9.173969|    2.160646|
|        4044|  7.6580e+00|   -7.469329|   -7.546935|   -8.053130|   -7.788862|   -7.609262|   -9.175405|    2.160648|
|        4045|  7.6580e+00|   -7.472042|   -7.550720|   -8.053474|   -7.792061|   -7.612673|   -9.176817|    2.160649|
|        4046|  7.6579e+00|   -7.474702|   -7.554515|   -8.053756|   -7.795253|   -7.616078|   -9.178205|    2.160650|
|        4047|  7.6578e+00|   -7.477304|   -7.558314|   -8.053979|   -7.798434|   -7.619471|   -9.179569|    2.160651|
|        4048|  7.6578e+00|   -7.479842|   -7.562111|   -8.054144|   -7.801598|   -7.622847|   -9.180909|    2.160652|
|        4049|  7.6577e+00|   -7.482311|   -7.565899|   -8.054254|   -7.804741|   -7.626199|   -9.182224|    2.160653|
|        4050|  7.6576e+00|   -7.484708|   -7.569673|   -8.054310|   -7.807858|   -7.629520|   -9.183515|    2.160654|
+-----------------------------------------------------------------------+
|        File Writing Summary       |              Filename             |
+-----------------------------------------------------------------------+
|SU2 binary restart                 |restart_flow.dat                   |
|Paraview                           |flow.vtu                           |
|Paraview surface                   |surface_flow.vtu                   |
+-----------------------------------------------------------------------+
+--------------------------------------------------------------------------------------------------------------------+
|  Inner_Iter|   Time(sec)|    rms[Rho]|   rms[RhoU]|   rms[RhoV]|   rms[RhoW]|   rms[RhoE]|     rms[nu]|          CD|
+--------------------------------------------------------------------------------------------------------------------+
|        4051|  7.6625e+00|   -7.487027|   -7.573424|   -8.054317|   -7.810945|   -7.632806|   -9.184782|    2.160655|
|        4052|  7.6625e+00|   -7.489265|   -7.577146|   -8.054275|   -7.813995|   -7.636049|   -9.186024|    2.160656|
|        4053|  7.6625e+00|   -7.491418|   -7.580832|   -8.054189|   -7.817006|   -7.639243|   -9.187242|    2.160657|
|        4054|  7.6625e+00|   -7.493482|   -7.584475|   -8.054062|   -7.819971|   -7.642382|   -9.188436|    2.160657|
|        4055|  7.6625e+00|   -7.495453|   -7.588066|   -8.053897|   -7.822886|   -7.645459|   -9.189606|    2.160658|
|        4056|  7.6625e+00|   -7.497330|   -7.591599|   -8.053698|   -7.825747|   -7.648467|   -9.190753|    2.160659|
|        4057|  7.6625e+00|   -7.499110|   -7.595066|   -8.053468|   -7.828548|   -7.651401|   -9.191875|    2.160660|
|        4058|  7.6624e+00|   -7.500790|   -7.598459|   -8.053212|   -7.831286|   -7.654254|   -9.192973|    2.160660|
|        4059|  7.6624e+00|   -7.502369|   -7.601771|   -8.052932|   -7.833956|   -7.657020|   -9.194049|    2.160661|
|        4060|  7.6624e+00|   -7.503845|   -7.604994|   -8.052633|   -7.836554|   -7.659694|   -9.195101|    2.160661|
|        4061|  7.6624e+00|   -7.505218|   -7.608120|   -8.052319|   -7.839076|   -7.662268|   -9.196130|    2.160662|
|        4062|  7.6623e+00|   -7.506487|   -7.611143|   -8.051994|   -7.841518|   -7.664739|   -9.197136|    2.160662|
|        4063|  7.6622e+00|   -7.507653|   -7.614054|   -8.051661|   -7.843877|   -7.667100|   -9.198120|    2.160663|
|        4064|  7.6622e+00|   -7.508716|   -7.616847|   -8.051324|   -7.846149|   -7.669347|   -9.199081|    2.160663|
|        4065|  7.6622e+00|   -7.509676|   -7.619516|   -8.050988|   -7.848332|   -7.671476|   -9.200020|    2.160663|
